
---------- Begin Simulation Statistics ----------
simSeconds                                   0.015074                       # Number of seconds simulated (Second)
simTicks                                  15073773500                       # Number of ticks simulated (Tick)
finalTick                                 15073773500                       # Number of ticks from beginning of simulation (restored from checkpoints and never reset) (Tick)
simFreq                                  1000000000000                       # The number of ticks per simulated second ((Tick/Second))
hostSeconds                                   4504.53                       # Real time elapsed on the host (Second)
hostTickRate                                  3346360                       # The number of ticks simulated per host second (ticks/s) ((Tick/Second))
hostMemory                                   39506528                       # Number of bytes of host memory used (Byte)
simInsts                                    794766966                       # Number of instructions simulated (Count)
simOps                                     1479701478                       # Number of ops (including micro ops) simulated (Count)
hostInstRate                                   176437                       # Simulator instruction rate (inst/s) ((Count/Second))
hostOpRate                                     328492                       # Simulator op (including micro ops) rate (op/s) ((Count/Second))
system.clk_domain.clock                          1000                       # Clock period in ticks (Tick)
system.cpu0.numCycles                        30147548                       # Number of cpu cycles simulated (Cycle)
system.cpu0.numWorkItemsStarted                     0                       # Number of work items this cpu started (Count)
system.cpu0.numWorkItemsCompleted                   0                       # Number of work items this cpu completed (Count)
system.cpu0.instsAdded                       96661820                       # Number of instructions added to the IQ (excludes non-spec) (Count)
system.cpu0.nonSpecInstsAdded                   31837                       # Number of non-speculative instructions added to the IQ (Count)
system.cpu0.instsIssued                      94747241                       # Number of instructions issued (Count)
system.cpu0.squashedInstsIssued                  9889                       # Number of squashed instructions issued (Count)
system.cpu0.squashedInstsExamined             4447678                       # Number of squashed instructions iterated over during squash; mainly for profiling (Count)
system.cpu0.squashedOperandsExamined         11291885                       # Number of squashed operands that are examined and possibly removed from graph (Count)
system.cpu0.squashedNonSpecRemoved                106                       # Number of squashed non-spec instructions that were removed (Count)
system.cpu0.numIssuedDist::samples           29362184                       # Number of insts issued each cycle (Count)
system.cpu0.numIssuedDist::mean              3.226846                       # Number of insts issued each cycle (Count)
system.cpu0.numIssuedDist::stdev             2.399011                       # Number of insts issued each cycle (Count)
system.cpu0.numIssuedDist::underflows               0      0.00%      0.00% # Number of insts issued each cycle (Count)
system.cpu0.numIssuedDist::0                  5631142     19.18%     19.18% # Number of insts issued each cycle (Count)
system.cpu0.numIssuedDist::1                  3289126     11.20%     30.38% # Number of insts issued each cycle (Count)
system.cpu0.numIssuedDist::2                  3099500     10.56%     40.94% # Number of insts issued each cycle (Count)
system.cpu0.numIssuedDist::3                  3881418     13.22%     54.16% # Number of insts issued each cycle (Count)
system.cpu0.numIssuedDist::4                  3885663     13.23%     67.39% # Number of insts issued each cycle (Count)
system.cpu0.numIssuedDist::5                  3510811     11.96%     79.35% # Number of insts issued each cycle (Count)
system.cpu0.numIssuedDist::6                  3000894     10.22%     89.57% # Number of insts issued each cycle (Count)
system.cpu0.numIssuedDist::7                  1996250      6.80%     96.36% # Number of insts issued each cycle (Count)
system.cpu0.numIssuedDist::8                  1067380      3.64%    100.00% # Number of insts issued each cycle (Count)
system.cpu0.numIssuedDist::overflows                0      0.00%    100.00% # Number of insts issued each cycle (Count)
system.cpu0.numIssuedDist::min_value                0                       # Number of insts issued each cycle (Count)
system.cpu0.numIssuedDist::max_value                8                       # Number of insts issued each cycle (Count)
system.cpu0.numIssuedDist::total             29362184                       # Number of insts issued each cycle (Count)
system.cpu0.statFuBusy::No_OpClass                  0      0.00%      0.00% # attempts to use FU when none available (Count)
system.cpu0.statFuBusy::IntAlu                1071196     82.63%     82.63% # attempts to use FU when none available (Count)
system.cpu0.statFuBusy::IntMult                     0      0.00%     82.63% # attempts to use FU when none available (Count)
system.cpu0.statFuBusy::IntDiv                      0      0.00%     82.63% # attempts to use FU when none available (Count)
system.cpu0.statFuBusy::FloatAdd                    0      0.00%     82.63% # attempts to use FU when none available (Count)
system.cpu0.statFuBusy::FloatCmp                    0      0.00%     82.63% # attempts to use FU when none available (Count)
system.cpu0.statFuBusy::FloatCvt                    0      0.00%     82.63% # attempts to use FU when none available (Count)
system.cpu0.statFuBusy::FloatMult                   0      0.00%     82.63% # attempts to use FU when none available (Count)
system.cpu0.statFuBusy::FloatMultAcc                0      0.00%     82.63% # attempts to use FU when none available (Count)
system.cpu0.statFuBusy::FloatDiv                    0      0.00%     82.63% # attempts to use FU when none available (Count)
system.cpu0.statFuBusy::FloatMisc                   0      0.00%     82.63% # attempts to use FU when none available (Count)
system.cpu0.statFuBusy::FloatSqrt                   0      0.00%     82.63% # attempts to use FU when none available (Count)
system.cpu0.statFuBusy::SimdAdd                     2      0.00%     82.63% # attempts to use FU when none available (Count)
system.cpu0.statFuBusy::SimdAddAcc                  0      0.00%     82.63% # attempts to use FU when none available (Count)
system.cpu0.statFuBusy::SimdAlu                 42214      3.26%     85.88% # attempts to use FU when none available (Count)
system.cpu0.statFuBusy::SimdCmp                     0      0.00%     85.88% # attempts to use FU when none available (Count)
system.cpu0.statFuBusy::SimdCvt                    75      0.01%     85.89% # attempts to use FU when none available (Count)
system.cpu0.statFuBusy::SimdMisc                    0      0.00%     85.89% # attempts to use FU when none available (Count)
system.cpu0.statFuBusy::SimdMult                    0      0.00%     85.89% # attempts to use FU when none available (Count)
system.cpu0.statFuBusy::SimdMultAcc                 0      0.00%     85.89% # attempts to use FU when none available (Count)
system.cpu0.statFuBusy::SimdShift                  50      0.00%     85.89% # attempts to use FU when none available (Count)
system.cpu0.statFuBusy::SimdShiftAcc                0      0.00%     85.89% # attempts to use FU when none available (Count)
system.cpu0.statFuBusy::SimdDiv                     0      0.00%     85.89% # attempts to use FU when none available (Count)
system.cpu0.statFuBusy::SimdSqrt                    0      0.00%     85.89% # attempts to use FU when none available (Count)
system.cpu0.statFuBusy::SimdFloatAdd                0      0.00%     85.89% # attempts to use FU when none available (Count)
system.cpu0.statFuBusy::SimdFloatAlu                0      0.00%     85.89% # attempts to use FU when none available (Count)
system.cpu0.statFuBusy::SimdFloatCmp                0      0.00%     85.89% # attempts to use FU when none available (Count)
system.cpu0.statFuBusy::SimdFloatCvt                0      0.00%     85.89% # attempts to use FU when none available (Count)
system.cpu0.statFuBusy::SimdFloatDiv                0      0.00%     85.89% # attempts to use FU when none available (Count)
system.cpu0.statFuBusy::SimdFloatMisc               0      0.00%     85.89% # attempts to use FU when none available (Count)
system.cpu0.statFuBusy::SimdFloatMult               0      0.00%     85.89% # attempts to use FU when none available (Count)
system.cpu0.statFuBusy::SimdFloatMultAcc            0      0.00%     85.89% # attempts to use FU when none available (Count)
system.cpu0.statFuBusy::SimdFloatSqrt               0      0.00%     85.89% # attempts to use FU when none available (Count)
system.cpu0.statFuBusy::SimdReduceAdd               0      0.00%     85.89% # attempts to use FU when none available (Count)
system.cpu0.statFuBusy::SimdReduceAlu               0      0.00%     85.89% # attempts to use FU when none available (Count)
system.cpu0.statFuBusy::SimdReduceCmp               0      0.00%     85.89% # attempts to use FU when none available (Count)
system.cpu0.statFuBusy::SimdFloatReduceAdd            0      0.00%     85.89% # attempts to use FU when none available (Count)
system.cpu0.statFuBusy::SimdFloatReduceCmp            0      0.00%     85.89% # attempts to use FU when none available (Count)
system.cpu0.statFuBusy::SimdAes                     0      0.00%     85.89% # attempts to use FU when none available (Count)
system.cpu0.statFuBusy::SimdAesMix                  0      0.00%     85.89% # attempts to use FU when none available (Count)
system.cpu0.statFuBusy::SimdSha1Hash                0      0.00%     85.89% # attempts to use FU when none available (Count)
system.cpu0.statFuBusy::SimdSha1Hash2               0      0.00%     85.89% # attempts to use FU when none available (Count)
system.cpu0.statFuBusy::SimdSha256Hash              0      0.00%     85.89% # attempts to use FU when none available (Count)
system.cpu0.statFuBusy::SimdSha256Hash2             0      0.00%     85.89% # attempts to use FU when none available (Count)
system.cpu0.statFuBusy::SimdShaSigma2               0      0.00%     85.89% # attempts to use FU when none available (Count)
system.cpu0.statFuBusy::SimdShaSigma3               0      0.00%     85.89% # attempts to use FU when none available (Count)
system.cpu0.statFuBusy::SimdPredAlu                 0      0.00%     85.89% # attempts to use FU when none available (Count)
system.cpu0.statFuBusy::MemRead                128661      9.92%     95.82% # attempts to use FU when none available (Count)
system.cpu0.statFuBusy::MemWrite                43522      3.36%     99.18% # attempts to use FU when none available (Count)
system.cpu0.statFuBusy::FloatMemRead            10617      0.82%     99.99% # attempts to use FU when none available (Count)
system.cpu0.statFuBusy::FloatMemWrite              65      0.01%    100.00% # attempts to use FU when none available (Count)
system.cpu0.statFuBusy::IprAccess                   0      0.00%    100.00% # attempts to use FU when none available (Count)
system.cpu0.statFuBusy::InstPrefetch                0      0.00%    100.00% # attempts to use FU when none available (Count)
system.cpu0.statIssuedInstType_0::No_OpClass       789920      0.83%      0.83% # Number of instructions issued per FU type, per thread (Count)
system.cpu0.statIssuedInstType_0::IntAlu     74794421     78.94%     79.77% # Number of instructions issued per FU type, per thread (Count)
system.cpu0.statIssuedInstType_0::IntMult        21852      0.02%     79.80% # Number of instructions issued per FU type, per thread (Count)
system.cpu0.statIssuedInstType_0::IntDiv       610663      0.64%     80.44% # Number of instructions issued per FU type, per thread (Count)
system.cpu0.statIssuedInstType_0::FloatAdd       186438      0.20%     80.64% # Number of instructions issued per FU type, per thread (Count)
system.cpu0.statIssuedInstType_0::FloatCmp            0      0.00%     80.64% # Number of instructions issued per FU type, per thread (Count)
system.cpu0.statIssuedInstType_0::FloatCvt           32      0.00%     80.64% # Number of instructions issued per FU type, per thread (Count)
system.cpu0.statIssuedInstType_0::FloatMult            0      0.00%     80.64% # Number of instructions issued per FU type, per thread (Count)
system.cpu0.statIssuedInstType_0::FloatMultAcc            0      0.00%     80.64% # Number of instructions issued per FU type, per thread (Count)
system.cpu0.statIssuedInstType_0::FloatDiv            0      0.00%     80.64% # Number of instructions issued per FU type, per thread (Count)
system.cpu0.statIssuedInstType_0::FloatMisc            0      0.00%     80.64% # Number of instructions issued per FU type, per thread (Count)
system.cpu0.statIssuedInstType_0::FloatSqrt            0      0.00%     80.64% # Number of instructions issued per FU type, per thread (Count)
system.cpu0.statIssuedInstType_0::SimdAdd          966      0.00%     80.64% # Number of instructions issued per FU type, per thread (Count)
system.cpu0.statIssuedInstType_0::SimdAddAcc            0      0.00%     80.64% # Number of instructions issued per FU type, per thread (Count)
system.cpu0.statIssuedInstType_0::SimdAlu       361125      0.38%     81.02% # Number of instructions issued per FU type, per thread (Count)
system.cpu0.statIssuedInstType_0::SimdCmp            6      0.00%     81.02% # Number of instructions issued per FU type, per thread (Count)
system.cpu0.statIssuedInstType_0::SimdCvt        86863      0.09%     81.11% # Number of instructions issued per FU type, per thread (Count)
system.cpu0.statIssuedInstType_0::SimdMisc       165342      0.17%     81.29% # Number of instructions issued per FU type, per thread (Count)
system.cpu0.statIssuedInstType_0::SimdMult            0      0.00%     81.29% # Number of instructions issued per FU type, per thread (Count)
system.cpu0.statIssuedInstType_0::SimdMultAcc            0      0.00%     81.29% # Number of instructions issued per FU type, per thread (Count)
system.cpu0.statIssuedInstType_0::SimdShift          800      0.00%     81.29% # Number of instructions issued per FU type, per thread (Count)
system.cpu0.statIssuedInstType_0::SimdShiftAcc            0      0.00%     81.29% # Number of instructions issued per FU type, per thread (Count)
system.cpu0.statIssuedInstType_0::SimdDiv            0      0.00%     81.29% # Number of instructions issued per FU type, per thread (Count)
system.cpu0.statIssuedInstType_0::SimdSqrt            0      0.00%     81.29% # Number of instructions issued per FU type, per thread (Count)
system.cpu0.statIssuedInstType_0::SimdFloatAdd        16112      0.02%     81.31% # Number of instructions issued per FU type, per thread (Count)
system.cpu0.statIssuedInstType_0::SimdFloatAlu            0      0.00%     81.31% # Number of instructions issued per FU type, per thread (Count)
system.cpu0.statIssuedInstType_0::SimdFloatCmp            0      0.00%     81.31% # Number of instructions issued per FU type, per thread (Count)
system.cpu0.statIssuedInstType_0::SimdFloatCvt            0      0.00%     81.31% # Number of instructions issued per FU type, per thread (Count)
system.cpu0.statIssuedInstType_0::SimdFloatDiv            0      0.00%     81.31% # Number of instructions issued per FU type, per thread (Count)
system.cpu0.statIssuedInstType_0::SimdFloatMisc            0      0.00%     81.31% # Number of instructions issued per FU type, per thread (Count)
system.cpu0.statIssuedInstType_0::SimdFloatMult            0      0.00%     81.31% # Number of instructions issued per FU type, per thread (Count)
system.cpu0.statIssuedInstType_0::SimdFloatMultAcc            0      0.00%     81.31% # Number of instructions issued per FU type, per thread (Count)
system.cpu0.statIssuedInstType_0::SimdFloatSqrt            0      0.00%     81.31% # Number of instructions issued per FU type, per thread (Count)
system.cpu0.statIssuedInstType_0::SimdReduceAdd            0      0.00%     81.31% # Number of instructions issued per FU type, per thread (Count)
system.cpu0.statIssuedInstType_0::SimdReduceAlu            0      0.00%     81.31% # Number of instructions issued per FU type, per thread (Count)
system.cpu0.statIssuedInstType_0::SimdReduceCmp            0      0.00%     81.31% # Number of instructions issued per FU type, per thread (Count)
system.cpu0.statIssuedInstType_0::SimdFloatReduceAdd            0      0.00%     81.31% # Number of instructions issued per FU type, per thread (Count)
system.cpu0.statIssuedInstType_0::SimdFloatReduceCmp            0      0.00%     81.31% # Number of instructions issued per FU type, per thread (Count)
system.cpu0.statIssuedInstType_0::SimdAes            0      0.00%     81.31% # Number of instructions issued per FU type, per thread (Count)
system.cpu0.statIssuedInstType_0::SimdAesMix            0      0.00%     81.31% # Number of instructions issued per FU type, per thread (Count)
system.cpu0.statIssuedInstType_0::SimdSha1Hash            0      0.00%     81.31% # Number of instructions issued per FU type, per thread (Count)
system.cpu0.statIssuedInstType_0::SimdSha1Hash2            0      0.00%     81.31% # Number of instructions issued per FU type, per thread (Count)
system.cpu0.statIssuedInstType_0::SimdSha256Hash            0      0.00%     81.31% # Number of instructions issued per FU type, per thread (Count)
system.cpu0.statIssuedInstType_0::SimdSha256Hash2            0      0.00%     81.31% # Number of instructions issued per FU type, per thread (Count)
system.cpu0.statIssuedInstType_0::SimdShaSigma2            0      0.00%     81.31% # Number of instructions issued per FU type, per thread (Count)
system.cpu0.statIssuedInstType_0::SimdShaSigma3            0      0.00%     81.31% # Number of instructions issued per FU type, per thread (Count)
system.cpu0.statIssuedInstType_0::SimdPredAlu            0      0.00%     81.31% # Number of instructions issued per FU type, per thread (Count)
system.cpu0.statIssuedInstType_0::MemRead     11462090     12.10%     93.40% # Number of instructions issued per FU type, per thread (Count)
system.cpu0.statIssuedInstType_0::MemWrite      5895274      6.22%     99.62% # Number of instructions issued per FU type, per thread (Count)
system.cpu0.statIssuedInstType_0::FloatMemRead       195126      0.21%     99.83% # Number of instructions issued per FU type, per thread (Count)
system.cpu0.statIssuedInstType_0::FloatMemWrite       160211      0.17%    100.00% # Number of instructions issued per FU type, per thread (Count)
system.cpu0.statIssuedInstType_0::IprAccess            0      0.00%    100.00% # Number of instructions issued per FU type, per thread (Count)
system.cpu0.statIssuedInstType_0::InstPrefetch            0      0.00%    100.00% # Number of instructions issued per FU type, per thread (Count)
system.cpu0.statIssuedInstType_0::total      94747241                       # Number of instructions issued per FU type, per thread (Count)
system.cpu0.issueRate                        3.142784                       # Inst issue rate ((Count/Cycle))
system.cpu0.fuBusy                            1296402                       # FU busy when requested (Count)
system.cpu0.fuBusyRate                       0.013683                       # FU busy rate (busy events/executed inst) ((Count/Count))
system.cpu0.intInstQueueReads               217667598                       # Number of integer instruction queue reads (Count)
system.cpu0.intInstQueueWrites               99891188                       # Number of integer instruction queue writes (Count)
system.cpu0.intInstQueueWakeupAccesses       93087783                       # Number of integer instruction queue wakeup accesses (Count)
system.cpu0.fpInstQueueReads                  2495358                       # Number of floating instruction queue reads (Count)
system.cpu0.fpInstQueueWrites                 1256100                       # Number of floating instruction queue writes (Count)
system.cpu0.fpInstQueueWakeupAccesses         1209097                       # Number of floating instruction queue wakeup accesses (Count)
system.cpu0.vecInstQueueReads                       0                       # Number of vector instruction queue reads (Count)
system.cpu0.vecInstQueueWrites                      0                       # Number of vector instruction queue writes (Count)
system.cpu0.vecInstQueueWakeupAccesses              0                       # Number of vector instruction queue wakeup accesses (Count)
system.cpu0.intAluAccesses                   93979564                       # Number of integer alu accesses (Count)
system.cpu0.fpAluAccesses                     1274159                       # Number of floating point alu accesses (Count)
system.cpu0.vecAluAccesses                          0                       # Number of vector alu accesses (Count)
system.cpu0.numInsts                         94395889                       # Number of executed instructions (Count)
system.cpu0.numLoadInsts                     11599563                       # Number of load instructions executed (Count)
system.cpu0.numSquashedInsts                   351351                       # Number of squashed instructions skipped in execute (Count)
system.cpu0.numSwp                                  0                       # Number of swp insts executed (Count)
system.cpu0.numNop                                  0                       # Number of nop insts executed (Count)
system.cpu0.numRefs                          17635116                       # Number of memory reference insts executed (Count)
system.cpu0.numBranches                      10661160                       # Number of branches executed (Count)
system.cpu0.numStoreInsts                     6035553                       # Number of stores executed (Count)
system.cpu0.numRate                          3.131130                       # Inst execution rate ((Count/Cycle))
system.cpu0.timesIdled                           1463                       # Number of times that the entire CPU went into an idle state and unscheduled itself (Count)
system.cpu0.idleCycles                         785364                       # Total number of cycles that the CPU has spent unscheduled due to idling (Cycle)
system.cpu0.committedInsts                   49546439                       # Number of Instructions Simulated (Count)
system.cpu0.committedOps                     92245967                       # Number of Ops (including micro ops) Simulated (Count)
system.cpu0.cpi                              0.608471                       # CPI: Cycles Per Instruction ((Cycle/Count))
system.cpu0.totalCpi                         0.608471                       # CPI: Total CPI of All Threads ((Cycle/Count))
system.cpu0.ipc                              1.643465                       # IPC: Instructions Per Cycle ((Count/Cycle))
system.cpu0.totalIpc                         1.643465                       # IPC: Total IPC of All Threads ((Count/Cycle))
system.cpu0.intRegfileReads                 124535940                       # Number of integer regfile reads (Count)
system.cpu0.intRegfileWrites                 68413335                       # Number of integer regfile writes (Count)
system.cpu0.fpRegfileReads                    1457558                       # Number of floating regfile reads (Count)
system.cpu0.fpRegfileWrites                    963579                       # Number of floating regfile writes (Count)
system.cpu0.ccRegfileReads                   62917843                       # number of cc regfile reads (Count)
system.cpu0.ccRegfileWrites                  31087450                       # number of cc regfile writes (Count)
system.cpu0.miscRegfileReads                 38660407                       # number of misc regfile reads (Count)
system.cpu0.miscRegfileWrites                      18                       # number of misc regfile writes (Count)
system.cpu0.MemDepUnit__0.insertedLoads      11715085                       # Number of loads inserted to the mem dependence unit. (Count)
system.cpu0.MemDepUnit__0.insertedStores      6115599                       # Number of stores inserted to the mem dependence unit. (Count)
system.cpu0.MemDepUnit__0.conflictingLoads       562904                       # Number of conflicting loads. (Count)
system.cpu0.MemDepUnit__0.conflictingStores       280427                       # Number of conflicting stores. (Count)
system.cpu0.MemDepUnit__1.insertedLoads             0                       # Number of loads inserted to the mem dependence unit. (Count)
system.cpu0.MemDepUnit__1.insertedStores            0                       # Number of stores inserted to the mem dependence unit. (Count)
system.cpu0.MemDepUnit__1.conflictingLoads            0                       # Number of conflicting loads. (Count)
system.cpu0.MemDepUnit__1.conflictingStores            0                       # Number of conflicting stores. (Count)
system.cpu0.MemDepUnit__2.insertedLoads             0                       # Number of loads inserted to the mem dependence unit. (Count)
system.cpu0.MemDepUnit__2.insertedStores            0                       # Number of stores inserted to the mem dependence unit. (Count)
system.cpu0.MemDepUnit__2.conflictingLoads            0                       # Number of conflicting loads. (Count)
system.cpu0.MemDepUnit__2.conflictingStores            0                       # Number of conflicting stores. (Count)
system.cpu0.MemDepUnit__3.insertedLoads             0                       # Number of loads inserted to the mem dependence unit. (Count)
system.cpu0.MemDepUnit__3.insertedStores            0                       # Number of stores inserted to the mem dependence unit. (Count)
system.cpu0.MemDepUnit__3.conflictingLoads            0                       # Number of conflicting loads. (Count)
system.cpu0.MemDepUnit__3.conflictingStores            0                       # Number of conflicting stores. (Count)
system.cpu0.branchPred.lookups               11366023                       # Number of BP lookups (Count)
system.cpu0.branchPred.condPredicted          9350699                       # Number of conditional branches predicted (Count)
system.cpu0.branchPred.condIncorrect           139410                       # Number of conditional branches incorrect (Count)
system.cpu0.branchPred.BTBLookups             5227611                       # Number of BTB lookups (Count)
system.cpu0.branchPred.BTBUpdates               45327                       # Number of BTB updates (Count)
system.cpu0.branchPred.BTBHits                5223374                       # Number of BTB hits (Count)
system.cpu0.branchPred.BTBHitRatio           0.999189                       # BTB Hit Ratio (Ratio)
system.cpu0.branchPred.RASUsed                 375662                       # Number of times the RAS was used to get a target. (Count)
system.cpu0.branchPred.RASIncorrect                 5                       # Number of incorrect RAS predictions. (Count)
system.cpu0.branchPred.indirectLookups         216034                       # Number of indirect predictor lookups. (Count)
system.cpu0.branchPred.indirectHits            213733                       # Number of indirect target hits. (Count)
system.cpu0.branchPred.indirectMisses            2301                       # Number of indirect misses. (Count)
system.cpu0.branchPred.indirectMispredicted        11056                       # Number of mispredicted indirect branches. (Count)
system.cpu0.commit.commitSquashedInsts        4441980                       # The number of squashed insts skipped by commit (Count)
system.cpu0.commit.commitNonSpecStalls          31731                       # The number of times commit has been forced to stall to communicate backwards (Count)
system.cpu0.commit.branchMispredicts           139455                       # The number of times a branch was mispredicted (Count)
system.cpu0.commit.numCommittedDist::samples     28749406                       # Number of insts commited each cycle (Count)
system.cpu0.commit.numCommittedDist::mean     3.208622                       # Number of insts commited each cycle (Count)
system.cpu0.commit.numCommittedDist::stdev     2.977660                       # Number of insts commited each cycle (Count)
system.cpu0.commit.numCommittedDist::underflows            0      0.00%      0.00% # Number of insts commited each cycle (Count)
system.cpu0.commit.numCommittedDist::0        6737785     23.44%     23.44% # Number of insts commited each cycle (Count)
system.cpu0.commit.numCommittedDist::1        4840224     16.84%     40.27% # Number of insts commited each cycle (Count)
system.cpu0.commit.numCommittedDist::2        2792852      9.71%     49.99% # Number of insts commited each cycle (Count)
system.cpu0.commit.numCommittedDist::3        4433222     15.42%     65.41% # Number of insts commited each cycle (Count)
system.cpu0.commit.numCommittedDist::4        1219194      4.24%     69.65% # Number of insts commited each cycle (Count)
system.cpu0.commit.numCommittedDist::5        1392709      4.84%     74.49% # Number of insts commited each cycle (Count)
system.cpu0.commit.numCommittedDist::6         561586      1.95%     76.45% # Number of insts commited each cycle (Count)
system.cpu0.commit.numCommittedDist::7         864136      3.01%     79.45% # Number of insts commited each cycle (Count)
system.cpu0.commit.numCommittedDist::8        5907698     20.55%    100.00% # Number of insts commited each cycle (Count)
system.cpu0.commit.numCommittedDist::overflows            0      0.00%    100.00% # Number of insts commited each cycle (Count)
system.cpu0.commit.numCommittedDist::min_value            0                       # Number of insts commited each cycle (Count)
system.cpu0.commit.numCommittedDist::max_value            8                       # Number of insts commited each cycle (Count)
system.cpu0.commit.numCommittedDist::total     28749406                       # Number of insts commited each cycle (Count)
system.cpu0.commit.instsCommitted            49546439                       # Number of instructions committed (Count)
system.cpu0.commit.opsCommitted              92245967                       # Number of ops (including micro ops) committed (Count)
system.cpu0.commit.memRefs                   17234902                       # Number of memory references committed (Count)
system.cpu0.commit.loads                     11286531                       # Number of loads committed (Count)
system.cpu0.commit.amos                             0                       # Number of atomic instructions committed (Count)
system.cpu0.commit.membars                      21142                       # Number of memory barriers committed (Count)
system.cpu0.commit.branches                  10496913                       # Number of branches committed (Count)
system.cpu0.commit.vectorInstructions               0                       # Number of committed Vector instructions. (Count)
system.cpu0.commit.floating                   1198900                       # Number of committed floating point instructions. (Count)
system.cpu0.commit.integer                   90557544                       # Number of committed integer instructions. (Count)
system.cpu0.commit.functionCalls               367650                       # Number of function calls committed. (Count)
system.cpu0.commit.committedInstType_0::No_OpClass       756264      0.82%      0.82% # Class of committed instruction (Count)
system.cpu0.commit.committedInstType_0::IntAlu     72860219     78.98%     79.80% # Class of committed instruction (Count)
system.cpu0.commit.committedInstType_0::IntMult        21153      0.02%     79.83% # Class of committed instruction (Count)
system.cpu0.commit.committedInstType_0::IntDiv       567617      0.62%     80.44% # Class of committed instruction (Count)
system.cpu0.commit.committedInstType_0::FloatAdd       178843      0.19%     80.64% # Class of committed instruction (Count)
system.cpu0.commit.committedInstType_0::FloatCmp            0      0.00%     80.64% # Class of committed instruction (Count)
system.cpu0.commit.committedInstType_0::FloatCvt           32      0.00%     80.64% # Class of committed instruction (Count)
system.cpu0.commit.committedInstType_0::FloatMult            0      0.00%     80.64% # Class of committed instruction (Count)
system.cpu0.commit.committedInstType_0::FloatMultAcc            0      0.00%     80.64% # Class of committed instruction (Count)
system.cpu0.commit.committedInstType_0::FloatDiv            0      0.00%     80.64% # Class of committed instruction (Count)
system.cpu0.commit.committedInstType_0::FloatMisc            0      0.00%     80.64% # Class of committed instruction (Count)
system.cpu0.commit.committedInstType_0::FloatSqrt            0      0.00%     80.64% # Class of committed instruction (Count)
system.cpu0.commit.committedInstType_0::SimdAdd          602      0.00%     80.64% # Class of committed instruction (Count)
system.cpu0.commit.committedInstType_0::SimdAddAcc            0      0.00%     80.64% # Class of committed instruction (Count)
system.cpu0.commit.committedInstType_0::SimdAlu       360017      0.39%     81.03% # Class of committed instruction (Count)
system.cpu0.commit.committedInstType_0::SimdCmp            6      0.00%     81.03% # Class of committed instruction (Count)
system.cpu0.commit.committedInstType_0::SimdCvt        85790      0.09%     81.12% # Class of committed instruction (Count)
system.cpu0.commit.committedInstType_0::SimdMisc       164871      0.18%     81.30% # Class of committed instruction (Count)
system.cpu0.commit.committedInstType_0::SimdMult            0      0.00%     81.30% # Class of committed instruction (Count)
system.cpu0.commit.committedInstType_0::SimdMultAcc            0      0.00%     81.30% # Class of committed instruction (Count)
system.cpu0.commit.committedInstType_0::SimdShift          354      0.00%     81.30% # Class of committed instruction (Count)
system.cpu0.commit.committedInstType_0::SimdShiftAcc            0      0.00%     81.30% # Class of committed instruction (Count)
system.cpu0.commit.committedInstType_0::SimdDiv            0      0.00%     81.30% # Class of committed instruction (Count)
system.cpu0.commit.committedInstType_0::SimdSqrt            0      0.00%     81.30% # Class of committed instruction (Count)
system.cpu0.commit.committedInstType_0::SimdFloatAdd        15297      0.02%     81.32% # Class of committed instruction (Count)
system.cpu0.commit.committedInstType_0::SimdFloatAlu            0      0.00%     81.32% # Class of committed instruction (Count)
system.cpu0.commit.committedInstType_0::SimdFloatCmp            0      0.00%     81.32% # Class of committed instruction (Count)
system.cpu0.commit.committedInstType_0::SimdFloatCvt            0      0.00%     81.32% # Class of committed instruction (Count)
system.cpu0.commit.committedInstType_0::SimdFloatDiv            0      0.00%     81.32% # Class of committed instruction (Count)
system.cpu0.commit.committedInstType_0::SimdFloatMisc            0      0.00%     81.32% # Class of committed instruction (Count)
system.cpu0.commit.committedInstType_0::SimdFloatMult            0      0.00%     81.32% # Class of committed instruction (Count)
system.cpu0.commit.committedInstType_0::SimdFloatMultAcc            0      0.00%     81.32% # Class of committed instruction (Count)
system.cpu0.commit.committedInstType_0::SimdFloatSqrt            0      0.00%     81.32% # Class of committed instruction (Count)
system.cpu0.commit.committedInstType_0::SimdReduceAdd            0      0.00%     81.32% # Class of committed instruction (Count)
system.cpu0.commit.committedInstType_0::SimdReduceAlu            0      0.00%     81.32% # Class of committed instruction (Count)
system.cpu0.commit.committedInstType_0::SimdReduceCmp            0      0.00%     81.32% # Class of committed instruction (Count)
system.cpu0.commit.committedInstType_0::SimdFloatReduceAdd            0      0.00%     81.32% # Class of committed instruction (Count)
system.cpu0.commit.committedInstType_0::SimdFloatReduceCmp            0      0.00%     81.32% # Class of committed instruction (Count)
system.cpu0.commit.committedInstType_0::SimdAes            0      0.00%     81.32% # Class of committed instruction (Count)
system.cpu0.commit.committedInstType_0::SimdAesMix            0      0.00%     81.32% # Class of committed instruction (Count)
system.cpu0.commit.committedInstType_0::SimdSha1Hash            0      0.00%     81.32% # Class of committed instruction (Count)
system.cpu0.commit.committedInstType_0::SimdSha1Hash2            0      0.00%     81.32% # Class of committed instruction (Count)
system.cpu0.commit.committedInstType_0::SimdSha256Hash            0      0.00%     81.32% # Class of committed instruction (Count)
system.cpu0.commit.committedInstType_0::SimdSha256Hash2            0      0.00%     81.32% # Class of committed instruction (Count)
system.cpu0.commit.committedInstType_0::SimdShaSigma2            0      0.00%     81.32% # Class of committed instruction (Count)
system.cpu0.commit.committedInstType_0::SimdShaSigma3            0      0.00%     81.32% # Class of committed instruction (Count)
system.cpu0.commit.committedInstType_0::SimdPredAlu            0      0.00%     81.32% # Class of committed instruction (Count)
system.cpu0.commit.committedInstType_0::MemRead     11101259     12.03%     93.35% # Class of committed instruction (Count)
system.cpu0.commit.committedInstType_0::MemWrite      5788573      6.28%     99.63% # Class of committed instruction (Count)
system.cpu0.commit.committedInstType_0::FloatMemRead       185272      0.20%     99.83% # Class of committed instruction (Count)
system.cpu0.commit.committedInstType_0::FloatMemWrite       159798      0.17%    100.00% # Class of committed instruction (Count)
system.cpu0.commit.committedInstType_0::IprAccess            0      0.00%    100.00% # Class of committed instruction (Count)
system.cpu0.commit.committedInstType_0::InstPrefetch            0      0.00%    100.00% # Class of committed instruction (Count)
system.cpu0.commit.committedInstType_0::total     92245967                       # Class of committed instruction (Count)
system.cpu0.commit.commitEligibleSamples      5907698                       # number cycles where commit BW limit reached (Cycle)
system.cpu0.decode.idleCycles                 8732084                       # Number of cycles decode is idle (Cycle)
system.cpu0.decode.blockedCycles              4673669                       # Number of cycles decode is blocked (Cycle)
system.cpu0.decode.runCycles                 15495075                       # Number of cycles decode is running (Cycle)
system.cpu0.decode.unblockCycles               315677                       # Number of cycles decode is unblocking (Cycle)
system.cpu0.decode.squashCycles                145679                       # Number of cycles decode is squashing (Cycle)
system.cpu0.decode.branchResolved             5107593                       # Number of times decode resolved a branch (Count)
system.cpu0.decode.branchMispred                  756                       # Number of times decode detected a branch misprediction (Count)
system.cpu0.decode.decodedInsts              98427601                       # Number of instructions handled by decode (Count)
system.cpu0.decode.squashedInsts                 3798                       # Number of squashed instructions handled by decode (Count)
system.cpu0.fetch.icacheStallCycles           8294296                       # Number of cycles fetch is stalled on an Icache miss (Cycle)
system.cpu0.fetch.insts                      52915344                       # Number of instructions fetch has processed (Count)
system.cpu0.fetch.branches                   11366023                       # Number of branches that fetch encountered (Count)
system.cpu0.fetch.predictedBranches           5812769                       # Number of branches that fetch has predicted taken (Count)
system.cpu0.fetch.cycles                     20801948                       # Number of cycles fetch has run and was not squashing or blocked (Cycle)
system.cpu0.fetch.squashCycles                 292850                       # Number of cycles fetch has spent squashing (Cycle)
system.cpu0.fetch.miscStallCycles                2648                       # Number of cycles fetch has spent waiting on interrupts, or bad addresses, or out of MSHRs (Cycle)
system.cpu0.fetch.pendingTrapStallCycles         6128                       # Number of stall cycles due to pending traps (Cycle)
system.cpu0.fetch.icacheWaitRetryStallCycles       110739                       # Number of stall cycles due to full MSHR (Cycle)
system.cpu0.fetch.cacheLines                  8072336                       # Number of cache lines fetched (Count)
system.cpu0.fetch.icacheSquashes                49237                       # Number of outstanding Icache misses that were squashed (Count)
system.cpu0.fetch.nisnDist::samples          29362184                       # Number of instructions fetched each cycle (Total) (Count)
system.cpu0.fetch.nisnDist::mean             3.387450                       # Number of instructions fetched each cycle (Total) (Count)
system.cpu0.fetch.nisnDist::stdev            3.533738                       # Number of instructions fetched each cycle (Total) (Count)
system.cpu0.fetch.nisnDist::underflows              0      0.00%      0.00% # Number of instructions fetched each cycle (Total) (Count)
system.cpu0.fetch.nisnDist::0                13183374     44.90%     44.90% # Number of instructions fetched each cycle (Total) (Count)
system.cpu0.fetch.nisnDist::1                  824722      2.81%     47.71% # Number of instructions fetched each cycle (Total) (Count)
system.cpu0.fetch.nisnDist::2                 1100754      3.75%     51.46% # Number of instructions fetched each cycle (Total) (Count)
system.cpu0.fetch.nisnDist::3                 1396429      4.76%     56.21% # Number of instructions fetched each cycle (Total) (Count)
system.cpu0.fetch.nisnDist::4                 1004036      3.42%     59.63% # Number of instructions fetched each cycle (Total) (Count)
system.cpu0.fetch.nisnDist::5                 1451636      4.94%     64.58% # Number of instructions fetched each cycle (Total) (Count)
system.cpu0.fetch.nisnDist::6                  650931      2.22%     66.79% # Number of instructions fetched each cycle (Total) (Count)
system.cpu0.fetch.nisnDist::7                  934916      3.18%     69.98% # Number of instructions fetched each cycle (Total) (Count)
system.cpu0.fetch.nisnDist::8                 8815386     30.02%    100.00% # Number of instructions fetched each cycle (Total) (Count)
system.cpu0.fetch.nisnDist::overflows               0      0.00%    100.00% # Number of instructions fetched each cycle (Total) (Count)
system.cpu0.fetch.nisnDist::min_value               0                       # Number of instructions fetched each cycle (Total) (Count)
system.cpu0.fetch.nisnDist::max_value               8                       # Number of instructions fetched each cycle (Total) (Count)
system.cpu0.fetch.nisnDist::total            29362184                       # Number of instructions fetched each cycle (Total) (Count)
system.cpu0.fetch.branchRate                 0.377013                       # Number of branch fetches per cycle (Ratio)
system.cpu0.fetch.rate                       1.755212                       # Number of inst fetches per cycle ((Count/Cycle))
system.cpu0.iew.idleCycles                          0                       # Number of cycles IEW is idle (Cycle)
system.cpu0.iew.squashCycles                   145679                       # Number of cycles IEW is squashing (Cycle)
system.cpu0.iew.blockCycles                   1457189                       # Number of cycles IEW is blocking (Cycle)
system.cpu0.iew.unblockCycles                  116754                       # Number of cycles IEW is unblocking (Cycle)
system.cpu0.iew.dispatchedInsts              96693657                       # Number of instructions dispatched to IQ (Count)
system.cpu0.iew.dispSquashedInsts               86635                       # Number of squashed instructions skipped by dispatch (Count)
system.cpu0.iew.dispLoadInsts                11715085                       # Number of dispatched load instructions (Count)
system.cpu0.iew.dispStoreInsts                6115599                       # Number of dispatched store instructions (Count)
system.cpu0.iew.dispNonSpecInsts                10626                       # Number of dispatched non-speculative instructions (Count)
system.cpu0.iew.iqFullEvents                    27461                       # Number of times the IQ has become full, causing a stall (Count)
system.cpu0.iew.lsqFullEvents                   82765                       # Number of times the LSQ has become full, causing a stall (Count)
system.cpu0.iew.memOrderViolationEvents          5984                       # Number of memory order violations (Count)
system.cpu0.iew.predictedTakenIncorrect         93894                       # Number of branches that were predicted taken incorrectly (Count)
system.cpu0.iew.predictedNotTakenIncorrect        48223                       # Number of branches that were predicted not taken incorrectly (Count)
system.cpu0.iew.branchMispredicts              142117                       # Number of branch mispredicts detected at execute (Count)
system.cpu0.iew.instsToCommit                94342795                       # Cumulative count of insts sent to commit (Count)
system.cpu0.iew.writebackCount               94296880                       # Cumulative count of insts written-back (Count)
system.cpu0.iew.producerInst                 69039842                       # Number of instructions producing a value (Count)
system.cpu0.iew.consumerInst                117126069                       # Number of instructions consuming a value (Count)
system.cpu0.iew.wbRate                       3.127846                       # Insts written-back per cycle ((Count/Cycle))
system.cpu0.iew.wbFanout                     0.589449                       # Average fanout of values written-back ((Count/Count))
system.cpu0.interrupts.clk_domain.clock          8000                       # Clock period in ticks (Tick)
system.cpu0.lsq0.forwLoads                    2078004                       # Number of loads that had data forwarded from stores (Count)
system.cpu0.lsq0.squashedLoads                 428553                       # Number of loads squashed (Count)
system.cpu0.lsq0.ignoredResponses                2013                       # Number of memory responses ignored because the instruction is squashed (Count)
system.cpu0.lsq0.memOrderViolation               5984                       # Number of memory ordering violations (Count)
system.cpu0.lsq0.squashedStores                167228                       # Number of stores squashed (Count)
system.cpu0.lsq0.rescheduledLoads                5277                       # Number of loads that were rescheduled (Count)
system.cpu0.lsq0.blockedByCache                   884                       # Number of times an access to memory failed due to the cache being blocked (Count)
system.cpu0.lsq0.loadToUse::samples          11286531                       # Distribution of cycle latency between the first time a load is issued and its completion (Unspecified)
system.cpu0.lsq0.loadToUse::mean             3.383945                       # Distribution of cycle latency between the first time a load is issued and its completion (Unspecified)
system.cpu0.lsq0.loadToUse::stdev           22.443436                       # Distribution of cycle latency between the first time a load is issued and its completion (Unspecified)
system.cpu0.lsq0.loadToUse::0-9              11273241     99.88%     99.88% # Distribution of cycle latency between the first time a load is issued and its completion (Unspecified)
system.cpu0.lsq0.loadToUse::10-19                   4      0.00%     99.88% # Distribution of cycle latency between the first time a load is issued and its completion (Unspecified)
system.cpu0.lsq0.loadToUse::20-29                  10      0.00%     99.88% # Distribution of cycle latency between the first time a load is issued and its completion (Unspecified)
system.cpu0.lsq0.loadToUse::30-39                5280      0.05%     99.93% # Distribution of cycle latency between the first time a load is issued and its completion (Unspecified)
system.cpu0.lsq0.loadToUse::40-49                  12      0.00%     99.93% # Distribution of cycle latency between the first time a load is issued and its completion (Unspecified)
system.cpu0.lsq0.loadToUse::50-59                   9      0.00%     99.93% # Distribution of cycle latency between the first time a load is issued and its completion (Unspecified)
system.cpu0.lsq0.loadToUse::60-69                  11      0.00%     99.93% # Distribution of cycle latency between the first time a load is issued and its completion (Unspecified)
system.cpu0.lsq0.loadToUse::70-79                   7      0.00%     99.93% # Distribution of cycle latency between the first time a load is issued and its completion (Unspecified)
system.cpu0.lsq0.loadToUse::80-89                  23      0.00%     99.93% # Distribution of cycle latency between the first time a load is issued and its completion (Unspecified)
system.cpu0.lsq0.loadToUse::90-99                  11      0.00%     99.93% # Distribution of cycle latency between the first time a load is issued and its completion (Unspecified)
system.cpu0.lsq0.loadToUse::100-109                22      0.00%     99.93% # Distribution of cycle latency between the first time a load is issued and its completion (Unspecified)
system.cpu0.lsq0.loadToUse::110-119                19      0.00%     99.93% # Distribution of cycle latency between the first time a load is issued and its completion (Unspecified)
system.cpu0.lsq0.loadToUse::120-129                12      0.00%     99.93% # Distribution of cycle latency between the first time a load is issued and its completion (Unspecified)
system.cpu0.lsq0.loadToUse::130-139                 1      0.00%     99.93% # Distribution of cycle latency between the first time a load is issued and its completion (Unspecified)
system.cpu0.lsq0.loadToUse::140-149                18      0.00%     99.93% # Distribution of cycle latency between the first time a load is issued and its completion (Unspecified)
system.cpu0.lsq0.loadToUse::150-159                13      0.00%     99.93% # Distribution of cycle latency between the first time a load is issued and its completion (Unspecified)
system.cpu0.lsq0.loadToUse::160-169                11      0.00%     99.93% # Distribution of cycle latency between the first time a load is issued and its completion (Unspecified)
system.cpu0.lsq0.loadToUse::170-179                28      0.00%     99.93% # Distribution of cycle latency between the first time a load is issued and its completion (Unspecified)
system.cpu0.lsq0.loadToUse::180-189                38      0.00%     99.93% # Distribution of cycle latency between the first time a load is issued and its completion (Unspecified)
system.cpu0.lsq0.loadToUse::190-199                 8      0.00%     99.93% # Distribution of cycle latency between the first time a load is issued and its completion (Unspecified)
system.cpu0.lsq0.loadToUse::200-209                19      0.00%     99.93% # Distribution of cycle latency between the first time a load is issued and its completion (Unspecified)
system.cpu0.lsq0.loadToUse::210-219                20      0.00%     99.93% # Distribution of cycle latency between the first time a load is issued and its completion (Unspecified)
system.cpu0.lsq0.loadToUse::220-229                20      0.00%     99.93% # Distribution of cycle latency between the first time a load is issued and its completion (Unspecified)
system.cpu0.lsq0.loadToUse::230-239                41      0.00%     99.93% # Distribution of cycle latency between the first time a load is issued and its completion (Unspecified)
system.cpu0.lsq0.loadToUse::240-249                84      0.00%     99.93% # Distribution of cycle latency between the first time a load is issued and its completion (Unspecified)
system.cpu0.lsq0.loadToUse::250-259                11      0.00%     99.93% # Distribution of cycle latency between the first time a load is issued and its completion (Unspecified)
system.cpu0.lsq0.loadToUse::260-269                20      0.00%     99.93% # Distribution of cycle latency between the first time a load is issued and its completion (Unspecified)
system.cpu0.lsq0.loadToUse::270-279                16      0.00%     99.93% # Distribution of cycle latency between the first time a load is issued and its completion (Unspecified)
system.cpu0.lsq0.loadToUse::280-289                27      0.00%     99.93% # Distribution of cycle latency between the first time a load is issued and its completion (Unspecified)
system.cpu0.lsq0.loadToUse::290-299                39      0.00%     99.93% # Distribution of cycle latency between the first time a load is issued and its completion (Unspecified)
system.cpu0.lsq0.loadToUse::overflows            7456      0.07%    100.00% # Distribution of cycle latency between the first time a load is issued and its completion (Unspecified)
system.cpu0.lsq0.loadToUse::min_value               2                       # Distribution of cycle latency between the first time a load is issued and its completion (Unspecified)
system.cpu0.lsq0.loadToUse::max_value            2157                       # Distribution of cycle latency between the first time a load is issued and its completion (Unspecified)
system.cpu0.lsq0.loadToUse::total            11286531                       # Distribution of cycle latency between the first time a load is issued and its completion (Unspecified)
system.cpu0.mmu.dtb.rdAccesses               11596861                       # TLB accesses on read requests (Count)
system.cpu0.mmu.dtb.wrAccesses                6035559                       # TLB accesses on write requests (Count)
system.cpu0.mmu.dtb.rdMisses                      928                       # TLB misses on read requests (Count)
system.cpu0.mmu.dtb.wrMisses                      249                       # TLB misses on write requests (Count)
system.cpu0.mmu.dtb.walker.power_state.pwrStateResidencyTicks::UNDEFINED  15073773500                       # Cumulative time (in ticks) in various power states (Tick)
system.cpu0.mmu.itb.rdAccesses                      0                       # TLB accesses on read requests (Count)
system.cpu0.mmu.itb.wrAccesses                8073166                       # TLB accesses on write requests (Count)
system.cpu0.mmu.itb.rdMisses                        0                       # TLB misses on read requests (Count)
system.cpu0.mmu.itb.wrMisses                     1264                       # TLB misses on write requests (Count)
system.cpu0.mmu.itb.walker.power_state.pwrStateResidencyTicks::UNDEFINED  15073773500                       # Cumulative time (in ticks) in various power states (Tick)
system.cpu0.power_state.pwrStateResidencyTicks::ON  15073773500                       # Cumulative time (in ticks) in various power states (Tick)
system.cpu0.rename.squashCycles                145679                       # Number of cycles rename is squashing (Cycle)
system.cpu0.rename.idleCycles                 8926336                       # Number of cycles rename is idle (Cycle)
system.cpu0.rename.blockCycles                1913178                       # Number of cycles rename is blocking (Cycle)
system.cpu0.rename.serializeStallCycles          4941                       # count of cycles rename stalled for serializing inst (Cycle)
system.cpu0.rename.runCycles                 15585262                       # Number of cycles rename is running (Cycle)
system.cpu0.rename.unblockCycles              2786788                       # Number of cycles rename is unblocking (Cycle)
system.cpu0.rename.renamedInsts              97826067                       # Number of instructions processed by rename (Count)
system.cpu0.rename.ROBFullEvents                24208                       # Number of times rename has blocked due to ROB full (Count)
system.cpu0.rename.IQFullEvents                556107                       # Number of times rename has blocked due to IQ full (Count)
system.cpu0.rename.LQFullEvents                 28764                       # Number of times rename has blocked due to LQ full (Count)
system.cpu0.rename.SQFullEvents               2149835                       # Number of times rename has blocked due to SQ full (Count)
system.cpu0.rename.renamedOperands          165024198                       # Number of destination operands rename has renamed (Count)
system.cpu0.rename.lookups                  339181443                       # Number of register rename lookups that rename has made (Count)
system.cpu0.rename.intLookups               131783933                       # Number of integer rename lookups (Count)
system.cpu0.rename.fpLookups                  1483369                       # Number of floating rename lookups (Count)
system.cpu0.rename.committedMaps            154003765                       # Number of HB maps that are committed (Count)
system.cpu0.rename.undoneMaps                11020401                       # Number of HB maps that are undone due to squashing (Count)
system.cpu0.rename.serializing                     80                       # count of serializing insts renamed (Count)
system.cpu0.rename.tempSerializing                 65                       # count of temporary serializing insts renamed (Count)
system.cpu0.rename.skidInsts                  1616273                       # count of insts added to the skid buffer (Count)
system.cpu0.rob.reads                       119525716                       # The number of ROB reads (Count)
system.cpu0.rob.writes                      193989194                       # The number of ROB writes (Count)
system.cpu0.thread_0.numInsts                49546439                       # Number of Instructions committed (Count)
system.cpu0.thread_0.numOps                  92245967                       # Number of Ops committed (Count)
system.cpu0.thread_0.numMemRefs                     0                       # Number of Memory References (Count)
system.cpu0.workload.numSyscalls                   91                       # Number of system calls (Count)
system.cpu1.numCycles                        30147548                       # Number of cpu cycles simulated (Cycle)
system.cpu1.numWorkItemsStarted                     0                       # Number of work items this cpu started (Count)
system.cpu1.numWorkItemsCompleted                   0                       # Number of work items this cpu completed (Count)
system.cpu1.instsAdded                       97316603                       # Number of instructions added to the IQ (excludes non-spec) (Count)
system.cpu1.nonSpecInstsAdded                   32054                       # Number of non-speculative instructions added to the IQ (Count)
system.cpu1.instsIssued                      95388940                       # Number of instructions issued (Count)
system.cpu1.squashedInstsIssued                  9955                       # Number of squashed instructions issued (Count)
system.cpu1.squashedInstsExamined             4476700                       # Number of squashed instructions iterated over during squash; mainly for profiling (Count)
system.cpu1.squashedOperandsExamined         11369097                       # Number of squashed operands that are examined and possibly removed from graph (Count)
system.cpu1.squashedNonSpecRemoved                107                       # Number of squashed non-spec instructions that were removed (Count)
system.cpu1.numIssuedDist::samples           29401679                       # Number of insts issued each cycle (Count)
system.cpu1.numIssuedDist::mean              3.244336                       # Number of insts issued each cycle (Count)
system.cpu1.numIssuedDist::stdev             2.393687                       # Number of insts issued each cycle (Count)
system.cpu1.numIssuedDist::underflows               0      0.00%      0.00% # Number of insts issued each cycle (Count)
system.cpu1.numIssuedDist::0                  5510200     18.74%     18.74% # Number of insts issued each cycle (Count)
system.cpu1.numIssuedDist::1                  3311019     11.26%     30.00% # Number of insts issued each cycle (Count)
system.cpu1.numIssuedDist::2                  3120524     10.61%     40.62% # Number of insts issued each cycle (Count)
system.cpu1.numIssuedDist::3                  3907676     13.29%     53.91% # Number of insts issued each cycle (Count)
system.cpu1.numIssuedDist::4                  3911938     13.31%     67.21% # Number of insts issued each cycle (Count)
system.cpu1.numIssuedDist::5                  3534788     12.02%     79.23% # Number of insts issued each cycle (Count)
system.cpu1.numIssuedDist::6                  3021188     10.28%     89.51% # Number of insts issued each cycle (Count)
system.cpu1.numIssuedDist::7                  2009743      6.84%     96.35% # Number of insts issued each cycle (Count)
system.cpu1.numIssuedDist::8                  1074603      3.65%    100.00% # Number of insts issued each cycle (Count)
system.cpu1.numIssuedDist::overflows                0      0.00%    100.00% # Number of insts issued each cycle (Count)
system.cpu1.numIssuedDist::min_value                0                       # Number of insts issued each cycle (Count)
system.cpu1.numIssuedDist::max_value                8                       # Number of insts issued each cycle (Count)
system.cpu1.numIssuedDist::total             29401679                       # Number of insts issued each cycle (Count)
system.cpu1.statFuBusy::No_OpClass                  0      0.00%      0.00% # attempts to use FU when none available (Count)
system.cpu1.statFuBusy::IntAlu                1078552     82.63%     82.63% # attempts to use FU when none available (Count)
system.cpu1.statFuBusy::IntMult                     0      0.00%     82.63% # attempts to use FU when none available (Count)
system.cpu1.statFuBusy::IntDiv                      0      0.00%     82.63% # attempts to use FU when none available (Count)
system.cpu1.statFuBusy::FloatAdd                    0      0.00%     82.63% # attempts to use FU when none available (Count)
system.cpu1.statFuBusy::FloatCmp                    0      0.00%     82.63% # attempts to use FU when none available (Count)
system.cpu1.statFuBusy::FloatCvt                    0      0.00%     82.63% # attempts to use FU when none available (Count)
system.cpu1.statFuBusy::FloatMult                   0      0.00%     82.63% # attempts to use FU when none available (Count)
system.cpu1.statFuBusy::FloatMultAcc                0      0.00%     82.63% # attempts to use FU when none available (Count)
system.cpu1.statFuBusy::FloatDiv                    0      0.00%     82.63% # attempts to use FU when none available (Count)
system.cpu1.statFuBusy::FloatMisc                   0      0.00%     82.63% # attempts to use FU when none available (Count)
system.cpu1.statFuBusy::FloatSqrt                   0      0.00%     82.63% # attempts to use FU when none available (Count)
system.cpu1.statFuBusy::SimdAdd                     2      0.00%     82.63% # attempts to use FU when none available (Count)
system.cpu1.statFuBusy::SimdAddAcc                  0      0.00%     82.63% # attempts to use FU when none available (Count)
system.cpu1.statFuBusy::SimdAlu                 42501      3.26%     85.89% # attempts to use FU when none available (Count)
system.cpu1.statFuBusy::SimdCmp                     0      0.00%     85.89% # attempts to use FU when none available (Count)
system.cpu1.statFuBusy::SimdCvt                    76      0.01%     85.89% # attempts to use FU when none available (Count)
system.cpu1.statFuBusy::SimdMisc                    0      0.00%     85.89% # attempts to use FU when none available (Count)
system.cpu1.statFuBusy::SimdMult                    0      0.00%     85.89% # attempts to use FU when none available (Count)
system.cpu1.statFuBusy::SimdMultAcc                 0      0.00%     85.89% # attempts to use FU when none available (Count)
system.cpu1.statFuBusy::SimdShift                  50      0.00%     85.90% # attempts to use FU when none available (Count)
system.cpu1.statFuBusy::SimdShiftAcc                0      0.00%     85.90% # attempts to use FU when none available (Count)
system.cpu1.statFuBusy::SimdDiv                     0      0.00%     85.90% # attempts to use FU when none available (Count)
system.cpu1.statFuBusy::SimdSqrt                    0      0.00%     85.90% # attempts to use FU when none available (Count)
system.cpu1.statFuBusy::SimdFloatAdd                0      0.00%     85.90% # attempts to use FU when none available (Count)
system.cpu1.statFuBusy::SimdFloatAlu                0      0.00%     85.90% # attempts to use FU when none available (Count)
system.cpu1.statFuBusy::SimdFloatCmp                0      0.00%     85.90% # attempts to use FU when none available (Count)
system.cpu1.statFuBusy::SimdFloatCvt                0      0.00%     85.90% # attempts to use FU when none available (Count)
system.cpu1.statFuBusy::SimdFloatDiv                0      0.00%     85.90% # attempts to use FU when none available (Count)
system.cpu1.statFuBusy::SimdFloatMisc               0      0.00%     85.90% # attempts to use FU when none available (Count)
system.cpu1.statFuBusy::SimdFloatMult               0      0.00%     85.90% # attempts to use FU when none available (Count)
system.cpu1.statFuBusy::SimdFloatMultAcc            0      0.00%     85.90% # attempts to use FU when none available (Count)
system.cpu1.statFuBusy::SimdFloatSqrt               0      0.00%     85.90% # attempts to use FU when none available (Count)
system.cpu1.statFuBusy::SimdReduceAdd               0      0.00%     85.90% # attempts to use FU when none available (Count)
system.cpu1.statFuBusy::SimdReduceAlu               0      0.00%     85.90% # attempts to use FU when none available (Count)
system.cpu1.statFuBusy::SimdReduceCmp               0      0.00%     85.90% # attempts to use FU when none available (Count)
system.cpu1.statFuBusy::SimdFloatReduceAdd            0      0.00%     85.90% # attempts to use FU when none available (Count)
system.cpu1.statFuBusy::SimdFloatReduceCmp            0      0.00%     85.90% # attempts to use FU when none available (Count)
system.cpu1.statFuBusy::SimdAes                     0      0.00%     85.90% # attempts to use FU when none available (Count)
system.cpu1.statFuBusy::SimdAesMix                  0      0.00%     85.90% # attempts to use FU when none available (Count)
system.cpu1.statFuBusy::SimdSha1Hash                0      0.00%     85.90% # attempts to use FU when none available (Count)
system.cpu1.statFuBusy::SimdSha1Hash2               0      0.00%     85.90% # attempts to use FU when none available (Count)
system.cpu1.statFuBusy::SimdSha256Hash              0      0.00%     85.90% # attempts to use FU when none available (Count)
system.cpu1.statFuBusy::SimdSha256Hash2             0      0.00%     85.90% # attempts to use FU when none available (Count)
system.cpu1.statFuBusy::SimdShaSigma2               0      0.00%     85.90% # attempts to use FU when none available (Count)
system.cpu1.statFuBusy::SimdShaSigma3               0      0.00%     85.90% # attempts to use FU when none available (Count)
system.cpu1.statFuBusy::SimdPredAlu                 0      0.00%     85.90% # attempts to use FU when none available (Count)
system.cpu1.statFuBusy::MemRead                129526      9.92%     95.82% # attempts to use FU when none available (Count)
system.cpu1.statFuBusy::MemWrite                43820      3.36%     99.18% # attempts to use FU when none available (Count)
system.cpu1.statFuBusy::FloatMemRead            10687      0.82%    100.00% # attempts to use FU when none available (Count)
system.cpu1.statFuBusy::FloatMemWrite              64      0.00%    100.00% # attempts to use FU when none available (Count)
system.cpu1.statFuBusy::IprAccess                   0      0.00%    100.00% # attempts to use FU when none available (Count)
system.cpu1.statFuBusy::InstPrefetch                0      0.00%    100.00% # attempts to use FU when none available (Count)
system.cpu1.statIssuedInstType_0::No_OpClass       795398      0.83%      0.83% # Number of instructions issued per FU type, per thread (Count)
system.cpu1.statIssuedInstType_0::IntAlu     75300941     78.94%     79.77% # Number of instructions issued per FU type, per thread (Count)
system.cpu1.statIssuedInstType_0::IntMult        22001      0.02%     79.80% # Number of instructions issued per FU type, per thread (Count)
system.cpu1.statIssuedInstType_0::IntDiv       614775      0.64%     80.44% # Number of instructions issued per FU type, per thread (Count)
system.cpu1.statIssuedInstType_0::FloatAdd       187672      0.20%     80.64% # Number of instructions issued per FU type, per thread (Count)
system.cpu1.statIssuedInstType_0::FloatCmp            0      0.00%     80.64% # Number of instructions issued per FU type, per thread (Count)
system.cpu1.statIssuedInstType_0::FloatCvt           32      0.00%     80.64% # Number of instructions issued per FU type, per thread (Count)
system.cpu1.statIssuedInstType_0::FloatMult            0      0.00%     80.64% # Number of instructions issued per FU type, per thread (Count)
system.cpu1.statIssuedInstType_0::FloatMultAcc            0      0.00%     80.64% # Number of instructions issued per FU type, per thread (Count)
system.cpu1.statIssuedInstType_0::FloatDiv            0      0.00%     80.64% # Number of instructions issued per FU type, per thread (Count)
system.cpu1.statIssuedInstType_0::FloatMisc            0      0.00%     80.64% # Number of instructions issued per FU type, per thread (Count)
system.cpu1.statIssuedInstType_0::FloatSqrt            0      0.00%     80.64% # Number of instructions issued per FU type, per thread (Count)
system.cpu1.statIssuedInstType_0::SimdAdd          966      0.00%     80.64% # Number of instructions issued per FU type, per thread (Count)
system.cpu1.statIssuedInstType_0::SimdAddAcc            0      0.00%     80.64% # Number of instructions issued per FU type, per thread (Count)
system.cpu1.statIssuedInstType_0::SimdAlu       363565      0.38%     81.02% # Number of instructions issued per FU type, per thread (Count)
system.cpu1.statIssuedInstType_0::SimdCmp            6      0.00%     81.02% # Number of instructions issued per FU type, per thread (Count)
system.cpu1.statIssuedInstType_0::SimdCvt        87441      0.09%     81.11% # Number of instructions issued per FU type, per thread (Count)
system.cpu1.statIssuedInstType_0::SimdMisc       166457      0.17%     81.29% # Number of instructions issued per FU type, per thread (Count)
system.cpu1.statIssuedInstType_0::SimdMult            0      0.00%     81.29% # Number of instructions issued per FU type, per thread (Count)
system.cpu1.statIssuedInstType_0::SimdMultAcc            0      0.00%     81.29% # Number of instructions issued per FU type, per thread (Count)
system.cpu1.statIssuedInstType_0::SimdShift          790      0.00%     81.29% # Number of instructions issued per FU type, per thread (Count)
system.cpu1.statIssuedInstType_0::SimdShiftAcc            0      0.00%     81.29% # Number of instructions issued per FU type, per thread (Count)
system.cpu1.statIssuedInstType_0::SimdDiv            0      0.00%     81.29% # Number of instructions issued per FU type, per thread (Count)
system.cpu1.statIssuedInstType_0::SimdSqrt            0      0.00%     81.29% # Number of instructions issued per FU type, per thread (Count)
system.cpu1.statIssuedInstType_0::SimdFloatAdd        16214      0.02%     81.31% # Number of instructions issued per FU type, per thread (Count)
system.cpu1.statIssuedInstType_0::SimdFloatAlu            0      0.00%     81.31% # Number of instructions issued per FU type, per thread (Count)
system.cpu1.statIssuedInstType_0::SimdFloatCmp            0      0.00%     81.31% # Number of instructions issued per FU type, per thread (Count)
system.cpu1.statIssuedInstType_0::SimdFloatCvt            0      0.00%     81.31% # Number of instructions issued per FU type, per thread (Count)
system.cpu1.statIssuedInstType_0::SimdFloatDiv            0      0.00%     81.31% # Number of instructions issued per FU type, per thread (Count)
system.cpu1.statIssuedInstType_0::SimdFloatMisc            0      0.00%     81.31% # Number of instructions issued per FU type, per thread (Count)
system.cpu1.statIssuedInstType_0::SimdFloatMult            0      0.00%     81.31% # Number of instructions issued per FU type, per thread (Count)
system.cpu1.statIssuedInstType_0::SimdFloatMultAcc            0      0.00%     81.31% # Number of instructions issued per FU type, per thread (Count)
system.cpu1.statIssuedInstType_0::SimdFloatSqrt            0      0.00%     81.31% # Number of instructions issued per FU type, per thread (Count)
system.cpu1.statIssuedInstType_0::SimdReduceAdd            0      0.00%     81.31% # Number of instructions issued per FU type, per thread (Count)
system.cpu1.statIssuedInstType_0::SimdReduceAlu            0      0.00%     81.31% # Number of instructions issued per FU type, per thread (Count)
system.cpu1.statIssuedInstType_0::SimdReduceCmp            0      0.00%     81.31% # Number of instructions issued per FU type, per thread (Count)
system.cpu1.statIssuedInstType_0::SimdFloatReduceAdd            0      0.00%     81.31% # Number of instructions issued per FU type, per thread (Count)
system.cpu1.statIssuedInstType_0::SimdFloatReduceCmp            0      0.00%     81.31% # Number of instructions issued per FU type, per thread (Count)
system.cpu1.statIssuedInstType_0::SimdAes            0      0.00%     81.31% # Number of instructions issued per FU type, per thread (Count)
system.cpu1.statIssuedInstType_0::SimdAesMix            0      0.00%     81.31% # Number of instructions issued per FU type, per thread (Count)
system.cpu1.statIssuedInstType_0::SimdSha1Hash            0      0.00%     81.31% # Number of instructions issued per FU type, per thread (Count)
system.cpu1.statIssuedInstType_0::SimdSha1Hash2            0      0.00%     81.31% # Number of instructions issued per FU type, per thread (Count)
system.cpu1.statIssuedInstType_0::SimdSha256Hash            0      0.00%     81.31% # Number of instructions issued per FU type, per thread (Count)
system.cpu1.statIssuedInstType_0::SimdSha256Hash2            0      0.00%     81.31% # Number of instructions issued per FU type, per thread (Count)
system.cpu1.statIssuedInstType_0::SimdShaSigma2            0      0.00%     81.31% # Number of instructions issued per FU type, per thread (Count)
system.cpu1.statIssuedInstType_0::SimdShaSigma3            0      0.00%     81.31% # Number of instructions issued per FU type, per thread (Count)
system.cpu1.statIssuedInstType_0::SimdPredAlu            0      0.00%     81.31% # Number of instructions issued per FU type, per thread (Count)
system.cpu1.statIssuedInstType_0::MemRead     11539638     12.10%     93.40% # Number of instructions issued per FU type, per thread (Count)
system.cpu1.statIssuedInstType_0::MemWrite      5935316      6.22%     99.62% # Number of instructions issued per FU type, per thread (Count)
system.cpu1.statIssuedInstType_0::FloatMemRead       196437      0.21%     99.83% # Number of instructions issued per FU type, per thread (Count)
system.cpu1.statIssuedInstType_0::FloatMemWrite       161291      0.17%    100.00% # Number of instructions issued per FU type, per thread (Count)
system.cpu1.statIssuedInstType_0::IprAccess            0      0.00%    100.00% # Number of instructions issued per FU type, per thread (Count)
system.cpu1.statIssuedInstType_0::InstPrefetch            0      0.00%    100.00% # Number of instructions issued per FU type, per thread (Count)
system.cpu1.statIssuedInstType_0::total      95388940                       # Number of instructions issued per FU type, per thread (Count)
system.cpu1.issueRate                        3.164070                       # Inst issue rate ((Count/Cycle))
system.cpu1.fuBusy                            1305278                       # FU busy when requested (Count)
system.cpu1.fuBusyRate                       0.013684                       # FU busy rate (busy events/executed inst) ((Count/Count))
system.cpu1.intInstQueueReads               218982739                       # Number of integer instruction queue reads (Count)
system.cpu1.intInstQueueWrites              100566927                       # Number of integer instruction queue writes (Count)
system.cpu1.intInstQueueWakeupAccesses       93718418                       # Number of integer instruction queue wakeup accesses (Count)
system.cpu1.fpInstQueueReads                  2512053                       # Number of floating instruction queue reads (Count)
system.cpu1.fpInstQueueWrites                 1264419                       # Number of floating instruction queue writes (Count)
system.cpu1.fpInstQueueWakeupAccesses         1217182                       # Number of floating instruction queue wakeup accesses (Count)
system.cpu1.vecInstQueueReads                       0                       # Number of vector instruction queue reads (Count)
system.cpu1.vecInstQueueWrites                      0                       # Number of vector instruction queue writes (Count)
system.cpu1.vecInstQueueWakeupAccesses              0                       # Number of vector instruction queue wakeup accesses (Count)
system.cpu1.intAluAccesses                   94616134                       # Number of integer alu accesses (Count)
system.cpu1.fpAluAccesses                     1282686                       # Number of floating point alu accesses (Count)
system.cpu1.vecAluAccesses                          0                       # Number of vector alu accesses (Count)
system.cpu1.numInsts                         95035235                       # Number of executed instructions (Count)
system.cpu1.numLoadInsts                     11678038                       # Number of load instructions executed (Count)
system.cpu1.numSquashedInsts                   353705                       # Number of squashed instructions skipped in execute (Count)
system.cpu1.numSwp                                  0                       # Number of swp insts executed (Count)
system.cpu1.numNop                                  0                       # Number of nop insts executed (Count)
system.cpu1.numRefs                          17754598                       # Number of memory reference insts executed (Count)
system.cpu1.numBranches                      10733336                       # Number of branches executed (Count)
system.cpu1.numStoreInsts                     6076560                       # Number of stores executed (Count)
[...]
system.ruby.network.ext_out_link_utilization      1907954                       (Unspecified)
system.ruby.network.flit_network_latency | 53847477500                       | 88379497000                       |  7088843500                       (Unspecified)
system.ruby.network.flit_queueing_latency |   826244500                       |   708671000                       |    48783000                       (Unspecified)
system.ruby.network.flits_injected       |      546226     28.63%     28.63% |     1264166     66.26%     94.89% |       97566      5.11%    100.00% (Unspecified)
system.ruby.network.flits_injected::total      1907958                       (Unspecified)
system.ruby.network.flits_received       |      546222     28.63%     28.63% |     1264166     66.26%     94.89% |       97566      5.11%    100.00% (Unspecified)
system.ruby.network.flits_received::total      1907954                       (Unspecified)
system.ruby.network.int_link_utilization      4694952                       (Unspecified)
system.ruby.network.packet_network_latency | 28566247000                       | 27792444000                       |  7088843500                       (Unspecified)
system.ruby.network.packet_queueing_latency |   558166500                       |   178541000                       |    48783000                       (Unspecified)
system.ruby.network.packets_injected     |      324370     43.46%     43.46% |      324366     43.46%     86.93% |       97566     13.07%    100.00% (Unspecified)
system.ruby.network.packets_injected::total       746302                       (Unspecified)
system.ruby.network.packets_received     |      324368     43.46%     43.46% |      324366     43.46%     86.93% |       97566     13.07%    100.00% (Unspecified)
system.ruby.network.packets_received::total       746300                       (Unspecified)
system.ruby.network.routers00.Var_1                 0                       (Unspecified)
system.ruby.network.routers00.Var_2               417                       (Unspecified)
system.ruby.network.routers00.Var_3               994                       (Unspecified)
system.ruby.network.routers00.all_counts        19529                       (Unspecified)
system.ruby.network.routers00.buffer_reads       294762                       (Unspecified)
system.ruby.network.routers00.buffer_writes       294762                       (Unspecified)
system.ruby.network.routers00.crossbar_activity       294762                       (Unspecified)
system.ruby.network.routers00.detour_counts          998                       (Unspecified)
system.ruby.network.routers00.regular_var            0                       (Unspecified)
system.ruby.network.routers00.risk_counts          998                       (Unspecified)
system.ruby.network.routers00.sw_input_arbiter_activity       296020                       (Unspecified)
system.ruby.network.routers00.sw_output_arbiter_activity       294762                       (Unspecified)
system.ruby.network.routers01.Var_1                 0                       (Unspecified)
system.ruby.network.routers01.Var_2               401                       (Unspecified)
system.ruby.network.routers01.Var_3              1666                       (Unspecified)
system.ruby.network.routers01.all_counts        19513                       (Unspecified)
system.ruby.network.routers01.buffer_reads       427446                       (Unspecified)
system.ruby.network.routers01.buffer_writes       427446                       (Unspecified)
system.ruby.network.routers01.crossbar_activity       427446                       (Unspecified)
system.ruby.network.routers01.detour_counts         1672                       (Unspecified)
system.ruby.network.routers01.regular_var            0                       (Unspecified)
system.ruby.network.routers01.risk_counts         1673                       (Unspecified)
system.ruby.network.routers01.sw_input_arbiter_activity       430478                       (Unspecified)
system.ruby.network.routers01.sw_output_arbiter_activity       427446                       (Unspecified)
system.ruby.network.routers02.Var_1                 0                       (Unspecified)
system.ruby.network.routers02.Var_2               422                       (Unspecified)
system.ruby.network.routers02.Var_3              1850                       (Unspecified)
system.ruby.network.routers02.all_counts        19545                       (Unspecified)
system.ruby.network.routers02.buffer_reads       422952                       (Unspecified)
system.ruby.network.routers02.buffer_writes       422952                       (Unspecified)
system.ruby.network.routers02.crossbar_activity       422952                       (Unspecified)
system.ruby.network.routers02.detour_counts         1851                       (Unspecified)
system.ruby.network.routers02.regular_var            0                       (Unspecified)
system.ruby.network.routers02.risk_counts         1852                       (Unspecified)
system.ruby.network.routers02.sw_input_arbiter_activity       425930                       (Unspecified)
system.ruby.network.routers02.sw_output_arbiter_activity       422952                       (Unspecified)
system.ruby.network.routers03.Var_1                 0                       (Unspecified)
system.ruby.network.routers03.Var_2               401                       (Unspecified)
system.ruby.network.routers03.Var_3              1129                       (Unspecified)
system.ruby.network.routers03.all_counts        19495                       (Unspecified)
system.ruby.network.routers03.buffer_reads       300088                       (Unspecified)
system.ruby.network.routers03.buffer_writes       300088                       (Unspecified)
system.ruby.network.routers03.crossbar_activity       300088                       (Unspecified)
system.ruby.network.routers03.detour_counts         1136                       (Unspecified)
system.ruby.network.routers03.regular_var            0                       (Unspecified)
system.ruby.network.routers03.risk_counts         1136                       (Unspecified)
system.ruby.network.routers03.sw_input_arbiter_activity       301398                       (Unspecified)
system.ruby.network.routers03.sw_output_arbiter_activity       300088                       (Unspecified)
system.ruby.network.routers04.Var_1                 0                       (Unspecified)
system.ruby.network.routers04.Var_2               429                       (Unspecified)
system.ruby.network.routers04.Var_3              3393                       (Unspecified)
system.ruby.network.routers04.all_counts        19517                       (Unspecified)
system.ruby.network.routers04.buffer_reads       401222                       (Unspecified)
system.ruby.network.routers04.buffer_writes       401222                       (Unspecified)
system.ruby.network.routers04.crossbar_activity       401222                       (Unspecified)
system.ruby.network.routers04.detour_counts         3392                       (Unspecified)
system.ruby.network.routers04.regular_var            0                       (Unspecified)
system.ruby.network.routers04.risk_counts         3394                       (Unspecified)
system.ruby.network.routers04.sw_input_arbiter_activity       403375                       (Unspecified)
system.ruby.network.routers04.sw_output_arbiter_activity       401222                       (Unspecified)
system.ruby.network.routers05.Var_1                 0                       (Unspecified)
system.ruby.network.routers05.Var_2               432                       (Unspecified)
system.ruby.network.routers05.Var_3              3886                       (Unspecified)
system.ruby.network.routers05.all_counts        19565                       (Unspecified)
system.ruby.network.routers05.buffer_reads       533562                       (Unspecified)
system.ruby.network.routers05.buffer_writes       533562                       (Unspecified)
system.ruby.network.routers05.crossbar_activity       533562                       (Unspecified)
system.ruby.network.routers05.detour_counts         3887                       (Unspecified)
system.ruby.network.routers05.regular_var            0                       (Unspecified)
system.ruby.network.routers05.risk_counts         3887                       (Unspecified)
system.ruby.network.routers05.sw_input_arbiter_activity       537660                       (Unspecified)
system.ruby.network.routers05.sw_output_arbiter_activity       533562                       (Unspecified)
system.ruby.network.routers06.Var_1                 0                       (Unspecified)
system.ruby.network.routers06.Var_2               395                       (Unspecified)
system.ruby.network.routers06.Var_3              3521                       (Unspecified)
system.ruby.network.routers06.all_counts        19548                       (Unspecified)
system.ruby.network.routers06.buffer_reads       538923                       (Unspecified)
system.ruby.network.routers06.buffer_writes       538923                       (Unspecified)
system.ruby.network.routers06.crossbar_activity       538923                       (Unspecified)
system.ruby.network.routers06.detour_counts         3527                       (Unspecified)
system.ruby.network.routers06.regular_var            0                       (Unspecified)
system.ruby.network.routers06.risk_counts         3527                       (Unspecified)
system.ruby.network.routers06.sw_input_arbiter_activity       543073                       (Unspecified)
system.ruby.network.routers06.sw_output_arbiter_activity       538923                       (Unspecified)
system.ruby.network.routers07.Var_1                 0                       (Unspecified)
system.ruby.network.routers07.Var_2               421                       (Unspecified)
system.ruby.network.routers07.Var_3              3584                       (Unspecified)
system.ruby.network.routers07.all_counts        19481                       (Unspecified)
system.ruby.network.routers07.buffer_reads       403589                       (Unspecified)
system.ruby.network.routers07.buffer_writes       403589                       (Unspecified)
system.ruby.network.routers07.crossbar_activity       403589                       (Unspecified)
system.ruby.network.routers07.detour_counts         3587                       (Unspecified)
system.ruby.network.routers07.regular_var            0                       (Unspecified)
system.ruby.network.routers07.risk_counts         3588                       (Unspecified)
system.ruby.network.routers07.sw_input_arbiter_activity       406114                       (Unspecified)
system.ruby.network.routers07.sw_output_arbiter_activity       403589                       (Unspecified)
system.ruby.network.routers08.Var_1                 0                       (Unspecified)
system.ruby.network.routers08.Var_2               416                       (Unspecified)
system.ruby.network.routers08.Var_3              3234                       (Unspecified)
system.ruby.network.routers08.all_counts        19486                       (Unspecified)
system.ruby.network.routers08.buffer_reads       403186                       (Unspecified)
system.ruby.network.routers08.buffer_writes       403186                       (Unspecified)
system.ruby.network.routers08.crossbar_activity       403186                       (Unspecified)
system.ruby.network.routers08.detour_counts         3237                       (Unspecified)
system.ruby.network.routers08.regular_var            0                       (Unspecified)
system.ruby.network.routers08.risk_counts         3237                       (Unspecified)
system.ruby.network.routers08.sw_input_arbiter_activity       405556                       (Unspecified)
system.ruby.network.routers08.sw_output_arbiter_activity       403186                       (Unspecified)
system.ruby.network.routers09.Var_1                 0                       (Unspecified)
system.ruby.network.routers09.Var_2               383                       (Unspecified)
system.ruby.network.routers09.Var_3              3716                       (Unspecified)
system.ruby.network.routers09.all_counts        19543                       (Unspecified)
system.ruby.network.routers09.buffer_reads       540315                       (Unspecified)
system.ruby.network.routers09.buffer_writes       540315                       (Unspecified)
system.ruby.network.routers09.crossbar_activity       540315                       (Unspecified)
system.ruby.network.routers09.detour_counts         3718                       (Unspecified)
system.ruby.network.routers09.regular_var            0                       (Unspecified)
system.ruby.network.routers09.risk_counts         3718                       (Unspecified)
system.ruby.network.routers09.sw_input_arbiter_activity       544768                       (Unspecified)
system.ruby.network.routers09.sw_output_arbiter_activity       540315                       (Unspecified)
system.ruby.network.routers10.Var_1                 0                       (Unspecified)
system.ruby.network.routers10.Var_2               423                       (Unspecified)
system.ruby.network.routers10.Var_3              3542                       (Unspecified)
system.ruby.network.routers10.all_counts        19535                       (Unspecified)
system.ruby.network.routers10.buffer_reads       534477                       (Unspecified)
system.ruby.network.routers10.buffer_writes       534477                       (Unspecified)
system.ruby.network.routers10.crossbar_activity       534477                       (Unspecified)
system.ruby.network.routers10.detour_counts         3542                       (Unspecified)
system.ruby.network.routers10.regular_var            0                       (Unspecified)
system.ruby.network.routers10.risk_counts         3542                       (Unspecified)
system.ruby.network.routers10.sw_input_arbiter_activity       538842                       (Unspecified)
system.ruby.network.routers10.sw_output_arbiter_activity       534477                       (Unspecified)
system.ruby.network.routers11.Var_1                 0                       (Unspecified)
system.ruby.network.routers11.Var_2               413                       (Unspecified)
system.ruby.network.routers11.Var_3              3490                       (Unspecified)
system.ruby.network.routers11.all_counts        19476                       (Unspecified)
system.ruby.network.routers11.buffer_reads       403456                       (Unspecified)
system.ruby.network.routers11.buffer_writes       403456                       (Unspecified)
system.ruby.network.routers11.crossbar_activity       403456                       (Unspecified)
system.ruby.network.routers11.detour_counts         3494                       (Unspecified)
system.ruby.network.routers11.regular_var            0                       (Unspecified)
system.ruby.network.routers11.risk_counts         3494                       (Unspecified)
system.ruby.network.routers11.sw_input_arbiter_activity       405701                       (Unspecified)
system.ruby.network.routers11.sw_output_arbiter_activity       403456                       (Unspecified)
system.ruby.network.routers12.Var_1                 1                       (Unspecified)
system.ruby.network.routers12.Var_2               423                       (Unspecified)
system.ruby.network.routers12.Var_3              1068                       (Unspecified)
system.ruby.network.routers12.all_counts        19444                       (Unspecified)
system.ruby.network.routers12.buffer_reads       288954                       (Unspecified)
system.ruby.network.routers12.buffer_writes       288954                       (Unspecified)
system.ruby.network.routers12.crossbar_activity       288954                       (Unspecified)
system.ruby.network.routers12.detour_counts         1072                       (Unspecified)
system.ruby.network.routers12.regular_var            0                       (Unspecified)
system.ruby.network.routers12.risk_counts         1072                       (Unspecified)
system.ruby.network.routers12.sw_input_arbiter_activity       290168                       (Unspecified)
system.ruby.network.routers12.sw_output_arbiter_activity       288954                       (Unspecified)
system.ruby.network.routers13.Var_1                 0                       (Unspecified)
system.ruby.network.routers13.Var_2               415                       (Unspecified)
system.ruby.network.routers13.Var_3              1778                       (Unspecified)
system.ruby.network.routers13.all_counts        19491                       (Unspecified)
system.ruby.network.routers13.buffer_reads       413006                       (Unspecified)
system.ruby.network.routers13.buffer_writes       413006                       (Unspecified)
system.ruby.network.routers13.crossbar_activity       413006                       (Unspecified)
system.ruby.network.routers13.detour_counts         1788                       (Unspecified)
system.ruby.network.routers13.regular_var            0                       (Unspecified)
system.ruby.network.routers13.risk_counts         1789                       (Unspecified)
system.ruby.network.routers13.sw_input_arbiter_activity       416160                       (Unspecified)
system.ruby.network.routers13.sw_output_arbiter_activity       413006                       (Unspecified)
system.ruby.network.routers14.Var_1                 0                       (Unspecified)
system.ruby.network.routers14.Var_2               433                       (Unspecified)
system.ruby.network.routers14.Var_3              1873                       (Unspecified)
system.ruby.network.routers14.all_counts        19512                       (Unspecified)
system.ruby.network.routers14.buffer_reads       408241                       (Unspecified)
system.ruby.network.routers14.buffer_writes       408241                       (Unspecified)
system.ruby.network.routers14.crossbar_activity       408241                       (Unspecified)
system.ruby.network.routers14.detour_counts         1877                       (Unspecified)
system.ruby.network.routers14.regular_var            0                       (Unspecified)
system.ruby.network.routers14.risk_counts         1877                       (Unspecified)
system.ruby.network.routers14.sw_input_arbiter_activity       410836                       (Unspecified)
system.ruby.network.routers14.sw_output_arbiter_activity       408241                       (Unspecified)
system.ruby.network.routers15.Var_1                 1                       (Unspecified)
system.ruby.network.routers15.Var_2               413                       (Unspecified)
system.ruby.network.routers15.Var_3              1218                       (Unspecified)
system.ruby.network.routers15.all_counts        19427                       (Unspecified)
system.ruby.network.routers15.buffer_reads       288727                       (Unspecified)
system.ruby.network.routers15.buffer_writes       288727                       (Unspecified)
system.ruby.network.routers15.crossbar_activity       288727                       (Unspecified)
system.ruby.network.routers15.detour_counts         1222                       (Unspecified)
system.ruby.network.routers15.regular_var            0                       (Unspecified)
system.ruby.network.routers15.risk_counts         1223                       (Unspecified)
system.ruby.network.routers15.sw_input_arbiter_activity       289913                       (Unspecified)
system.ruby.network.routers15.sw_output_arbiter_activity       288727                       (Unspecified)

---------- End Simulation Statistics   ----------
