
---------- Begin Simulation Statistics ----------
simSeconds                                   0.015061                       # Number of seconds simulated (Second)
simTicks                                  15061158000                       # Number of ticks simulated (Tick)
finalTick                                 15061158000                       # Number of ticks from beginning of simulation (restored from checkpoints and never reset) (Tick)
simFreq                                  1000000000000                       # The number of ticks per simulated second ((Tick/Second))
hostSeconds                                   4241.15                       # Real time elapsed on the host (Second)
hostTickRate                                  3551194                       # The number of ticks simulated per host second (ticks/s) ((Tick/Second))
hostMemory                                   39506528                       # Number of bytes of host memory used (Byte)
simInsts                                    795076913                       # Number of instructions simulated (Count)
simOps                                     1480277796                       # Number of ops (including micro ops) simulated (Count)
hostInstRate                                   187467                       # Simulator instruction rate (inst/s) ((Count/Second))
hostOpRate                                     349027                       # Simulator op (including micro ops) rate (op/s) ((Count/Second))
system.clk_domain.clock                          1000                       # Clock period in ticks (Tick)
system.cpu0.numCycles                        30122317                       # Number of cpu cycles simulated (Cycle)
system.cpu0.numWorkItemsStarted                     0                       # Number of work items this cpu started (Count)
system.cpu0.numWorkItemsCompleted                   0                       # Number of work items this cpu completed (Count)
system.cpu0.instsAdded                       96625122                       # Number of instructions added to the IQ (excludes non-spec) (Count)
system.cpu0.nonSpecInstsAdded                   31825                       # Number of non-speculative instructions added to the IQ (Count)
system.cpu0.instsIssued                      94711062                       # Number of instructions issued (Count)
system.cpu0.squashedInstsIssued                  9902                       # Number of squashed instructions issued (Count)
system.cpu0.squashedInstsExamined             4446573                       # Number of squashed instructions iterated over during squash; mainly for profiling (Count)
system.cpu0.squashedOperandsExamined         11288287                       # Number of squashed operands that are examined and possibly removed from graph (Count)
system.cpu0.squashedNonSpecRemoved                106                       # Number of squashed non-spec instructions that were removed (Count)
system.cpu0.numIssuedDist::samples           29336794                       # Number of insts issued each cycle (Count)
system.cpu0.numIssuedDist::mean              3.228405                       # Number of insts issued each cycle (Count)
system.cpu0.numIssuedDist::stdev             2.398534                       # Number of insts issued each cycle (Count)
system.cpu0.numIssuedDist::underflows               0      0.00%      0.00% # Number of insts issued each cycle (Count)
system.cpu0.numIssuedDist::0                  5614799     19.14%     19.14% # Number of insts issued each cycle (Count)
system.cpu0.numIssuedDist::1                  3287822     11.21%     30.35% # Number of insts issued each cycle (Count)
system.cpu0.numIssuedDist::2                  3098349     10.56%     40.91% # Number of insts issued each cycle (Count)
system.cpu0.numIssuedDist::3                  3880003     13.23%     54.13% # Number of insts issued each cycle (Count)
system.cpu0.numIssuedDist::4                  3884107     13.24%     67.37% # Number of insts issued each cycle (Count)
system.cpu0.numIssuedDist::5                  3509518     11.96%     79.34% # Number of insts issued each cycle (Count)
system.cpu0.numIssuedDist::6                  2999789     10.23%     89.56% # Number of insts issued each cycle (Count)
system.cpu0.numIssuedDist::7                  1995475      6.80%     96.36% # Number of insts issued each cycle (Count)
system.cpu0.numIssuedDist::8                  1066932      3.64%    100.00% # Number of insts issued each cycle (Count)
system.cpu0.numIssuedDist::overflows                0      0.00%    100.00% # Number of insts issued each cycle (Count)
system.cpu0.numIssuedDist::min_value                0                       # Number of insts issued each cycle (Count)
system.cpu0.numIssuedDist::max_value                8                       # Number of insts issued each cycle (Count)
system.cpu0.numIssuedDist::total             29336794                       # Number of insts issued each cycle (Count)
system.cpu0.statFuBusy::No_OpClass                  0      0.00%      0.00% # attempts to use FU when none available (Count)
system.cpu0.statFuBusy::IntAlu                1070831     82.63%     82.63% # attempts to use FU when none available (Count)
system.cpu0.statFuBusy::IntMult                     0      0.00%     82.63% # attempts to use FU when none available (Count)
system.cpu0.statFuBusy::IntDiv                      0      0.00%     82.63% # attempts to use FU when none available (Count)
system.cpu0.statFuBusy::FloatAdd                    0      0.00%     82.63% # attempts to use FU when none available (Count)
system.cpu0.statFuBusy::FloatCmp                    0      0.00%     82.63% # attempts to use FU when none available (Count)
system.cpu0.statFuBusy::FloatCvt                    0      0.00%     82.63% # attempts to use FU when none available (Count)
system.cpu0.statFuBusy::FloatMult                   0      0.00%     82.63% # attempts to use FU when none available (Count)
system.cpu0.statFuBusy::FloatMultAcc                0      0.00%     82.63% # attempts to use FU when none available (Count)
system.cpu0.statFuBusy::FloatDiv                    0      0.00%     82.63% # attempts to use FU when none available (Count)
system.cpu0.statFuBusy::FloatMisc                   0      0.00%     82.63% # attempts to use FU when none available (Count)
system.cpu0.statFuBusy::FloatSqrt                   0      0.00%     82.63% # attempts to use FU when none available (Count)
system.cpu0.statFuBusy::SimdAdd                     2      0.00%     82.63% # attempts to use FU when none available (Count)
system.cpu0.statFuBusy::SimdAddAcc                  0      0.00%     82.63% # attempts to use FU when none available (Count)
system.cpu0.statFuBusy::SimdAlu                 42197      3.26%     85.89% # attempts to use FU when none available (Count)
system.cpu0.statFuBusy::SimdCmp                     0      0.00%     85.89% # attempts to use FU when none available (Count)
system.cpu0.statFuBusy::SimdCvt                    75      0.01%     85.89% # attempts to use FU when none available (Count)
system.cpu0.statFuBusy::SimdMisc                    0      0.00%     85.89% # attempts to use FU when none available (Count)
system.cpu0.statFuBusy::SimdMult                    0      0.00%     85.89% # attempts to use FU when none available (Count)
system.cpu0.statFuBusy::SimdMultAcc                 0      0.00%     85.89% # attempts to use FU when none available (Count)
system.cpu0.statFuBusy::SimdShift                  50      0.00%     85.90% # attempts to use FU when none available (Count)
system.cpu0.statFuBusy::SimdShiftAcc                0      0.00%     85.90% # attempts to use FU when none available (Count)
system.cpu0.statFuBusy::SimdDiv                     0      0.00%     85.90% # attempts to use FU when none available (Count)
system.cpu0.statFuBusy::SimdSqrt                    0      0.00%     85.90% # attempts to use FU when none available (Count)
system.cpu0.statFuBusy::SimdFloatAdd                0      0.00%     85.90% # attempts to use FU when none available (Count)
system.cpu0.statFuBusy::SimdFloatAlu                0      0.00%     85.90% # attempts to use FU when none available (Count)
system.cpu0.statFuBusy::SimdFloatCmp                0      0.00%     85.90% # attempts to use FU when none available (Count)
system.cpu0.statFuBusy::SimdFloatCvt                0      0.00%     85.90% # attempts to use FU when none available (Count)
system.cpu0.statFuBusy::SimdFloatDiv                0      0.00%     85.90% # attempts to use FU when none available (Count)
system.cpu0.statFuBusy::SimdFloatMisc               0      0.00%     85.90% # attempts to use FU when none available (Count)
system.cpu0.statFuBusy::SimdFloatMult               0      0.00%     85.90% # attempts to use FU when none available (Count)
system.cpu0.statFuBusy::SimdFloatMultAcc            0      0.00%     85.90% # attempts to use FU when none available (Count)
system.cpu0.statFuBusy::SimdFloatSqrt               0      0.00%     85.90% # attempts to use FU when none available (Count)
system.cpu0.statFuBusy::SimdReduceAdd               0      0.00%     85.90% # attempts to use FU when none available (Count)
system.cpu0.statFuBusy::SimdReduceAlu               0      0.00%     85.90% # attempts to use FU when none available (Count)
system.cpu0.statFuBusy::SimdReduceCmp               0      0.00%     85.90% # attempts to use FU when none available (Count)
system.cpu0.statFuBusy::SimdFloatReduceAdd            0      0.00%     85.90% # attempts to use FU when none available (Count)
system.cpu0.statFuBusy::SimdFloatReduceCmp            0      0.00%     85.90% # attempts to use FU when none available (Count)
system.cpu0.statFuBusy::SimdAes                     0      0.00%     85.90% # attempts to use FU when none available (Count)
system.cpu0.statFuBusy::SimdAesMix                  0      0.00%     85.90% # attempts to use FU when none available (Count)
system.cpu0.statFuBusy::SimdSha1Hash                0      0.00%     85.90% # attempts to use FU when none available (Count)
system.cpu0.statFuBusy::SimdSha1Hash2               0      0.00%     85.90% # attempts to use FU when none available (Count)
system.cpu0.statFuBusy::SimdSha256Hash              0      0.00%     85.90% # attempts to use FU when none available (Count)
system.cpu0.statFuBusy::SimdSha256Hash2             0      0.00%     85.90% # attempts to use FU when none available (Count)
system.cpu0.statFuBusy::SimdShaSigma2               0      0.00%     85.90% # attempts to use FU when none available (Count)
system.cpu0.statFuBusy::SimdShaSigma3               0      0.00%     85.90% # attempts to use FU when none available (Count)
system.cpu0.statFuBusy::SimdPredAlu                 0      0.00%     85.90% # attempts to use FU when none available (Count)
system.cpu0.statFuBusy::MemRead                128605      9.92%     95.82% # attempts to use FU when none available (Count)
system.cpu0.statFuBusy::MemWrite                43505      3.36%     99.18% # attempts to use FU when none available (Count)
system.cpu0.statFuBusy::FloatMemRead            10614      0.82%    100.00% # attempts to use FU when none available (Count)
system.cpu0.statFuBusy::FloatMemWrite              63      0.00%    100.00% # attempts to use FU when none available (Count)
system.cpu0.statFuBusy::IprAccess                   0      0.00%    100.00% # attempts to use FU when none available (Count)
system.cpu0.statFuBusy::InstPrefetch                0      0.00%    100.00% # attempts to use FU when none available (Count)
system.cpu0.statIssuedInstType_0::No_OpClass       789622      0.83%      0.83% # Number of instructions issued per FU type, per thread (Count)
system.cpu0.statIssuedInstType_0::IntAlu     74765903     78.94%     79.77% # Number of instructions issued per FU type, per thread (Count)
system.cpu0.statIssuedInstType_0::IntMult        21844      0.02%     79.80% # Number of instructions issued per FU type, per thread (Count)
system.cpu0.statIssuedInstType_0::IntDiv       610449      0.64%     80.44% # Number of instructions issued per FU type, per thread (Count)
system.cpu0.statIssuedInstType_0::FloatAdd       186371      0.20%     80.64% # Number of instructions issued per FU type, per thread (Count)
system.cpu0.statIssuedInstType_0::FloatCmp            0      0.00%     80.64% # Number of instructions issued per FU type, per thread (Count)
system.cpu0.statIssuedInstType_0::FloatCvt           32      0.00%     80.64% # Number of instructions issued per FU type, per thread (Count)
system.cpu0.statIssuedInstType_0::FloatMult            0      0.00%     80.64% # Number of instructions issued per FU type, per thread (Count)
system.cpu0.statIssuedInstType_0::FloatMultAcc            0      0.00%     80.64% # Number of instructions issued per FU type, per thread (Count)
system.cpu0.statIssuedInstType_0::FloatDiv            0      0.00%     80.64% # Number of instructions issued per FU type, per thread (Count)
system.cpu0.statIssuedInstType_0::FloatMisc            0      0.00%     80.64% # Number of instructions issued per FU type, per thread (Count)
system.cpu0.statIssuedInstType_0::FloatSqrt            0      0.00%     80.64% # Number of instructions issued per FU type, per thread (Count)
system.cpu0.statIssuedInstType_0::SimdAdd          970      0.00%     80.64% # Number of instructions issued per FU type, per thread (Count)
system.cpu0.statIssuedInstType_0::SimdAddAcc            0      0.00%     80.64% # Number of instructions issued per FU type, per thread (Count)
system.cpu0.statIssuedInstType_0::SimdAlu       360984      0.38%     81.02% # Number of instructions issued per FU type, per thread (Count)
system.cpu0.statIssuedInstType_0::SimdCmp            6      0.00%     81.02% # Number of instructions issued per FU type, per thread (Count)
system.cpu0.statIssuedInstType_0::SimdCvt        86836      0.09%     81.11% # Number of instructions issued per FU type, per thread (Count)
system.cpu0.statIssuedInstType_0::SimdMisc       165281      0.17%     81.29% # Number of instructions issued per FU type, per thread (Count)
system.cpu0.statIssuedInstType_0::SimdMult            0      0.00%     81.29% # Number of instructions issued per FU type, per thread (Count)
system.cpu0.statIssuedInstType_0::SimdMultAcc            0      0.00%     81.29% # Number of instructions issued per FU type, per thread (Count)
system.cpu0.statIssuedInstType_0::SimdShift          804      0.00%     81.29% # Number of instructions issued per FU type, per thread (Count)
system.cpu0.statIssuedInstType_0::SimdShiftAcc            0      0.00%     81.29% # Number of instructions issued per FU type, per thread (Count)
system.cpu0.statIssuedInstType_0::SimdDiv            0      0.00%     81.29% # Number of instructions issued per FU type, per thread (Count)
system.cpu0.statIssuedInstType_0::SimdSqrt            0      0.00%     81.29% # Number of instructions issued per FU type, per thread (Count)
system.cpu0.statIssuedInstType_0::SimdFloatAdd        16107      0.02%     81.31% # Number of instructions issued per FU type, per thread (Count)
system.cpu0.statIssuedInstType_0::SimdFloatAlu            0      0.00%     81.31% # Number of instructions issued per FU type, per thread (Count)
system.cpu0.statIssuedInstType_0::SimdFloatCmp            0      0.00%     81.31% # Number of instructions issued per FU type, per thread (Count)
system.cpu0.statIssuedInstType_0::SimdFloatCvt            0      0.00%     81.31% # Number of instructions issued per FU type, per thread (Count)
system.cpu0.statIssuedInstType_0::SimdFloatDiv            0      0.00%     81.31% # Number of instructions issued per FU type, per thread (Count)
system.cpu0.statIssuedInstType_0::SimdFloatMisc            0      0.00%     81.31% # Number of instructions issued per FU type, per thread (Count)
system.cpu0.statIssuedInstType_0::SimdFloatMult            0      0.00%     81.31% # Number of instructions issued per FU type, per thread (Count)
system.cpu0.statIssuedInstType_0::SimdFloatMultAcc            0      0.00%     81.31% # Number of instructions issued per FU type, per thread (Count)
system.cpu0.statIssuedInstType_0::SimdFloatSqrt            0      0.00%     81.31% # Number of instructions issued per FU type, per thread (Count)
system.cpu0.statIssuedInstType_0::SimdReduceAdd            0      0.00%     81.31% # Number of instructions issued per FU type, per thread (Count)
system.cpu0.statIssuedInstType_0::SimdReduceAlu            0      0.00%     81.31% # Number of instructions issued per FU type, per thread (Count)
system.cpu0.statIssuedInstType_0::SimdReduceCmp            0      0.00%     81.31% # Number of instructions issued per FU type, per thread (Count)
system.cpu0.statIssuedInstType_0::SimdFloatReduceAdd            0      0.00%     81.31% # Number of instructions issued per FU type, per thread (Count)
system.cpu0.statIssuedInstType_0::SimdFloatReduceCmp            0      0.00%     81.31% # Number of instructions issued per FU type, per thread (Count)
system.cpu0.statIssuedInstType_0::SimdAes            0      0.00%     81.31% # Number of instructions issued per FU type, per thread (Count)
system.cpu0.statIssuedInstType_0::SimdAesMix            0      0.00%     81.31% # Number of instructions issued per FU type, per thread (Count)
system.cpu0.statIssuedInstType_0::SimdSha1Hash            0      0.00%     81.31% # Number of instructions issued per FU type, per thread (Count)
system.cpu0.statIssuedInstType_0::SimdSha1Hash2            0      0.00%     81.31% # Number of instructions issued per FU type, per thread (Count)
system.cpu0.statIssuedInstType_0::SimdSha256Hash            0      0.00%     81.31% # Number of instructions issued per FU type, per thread (Count)
system.cpu0.statIssuedInstType_0::SimdSha256Hash2            0      0.00%     81.31% # Number of instructions issued per FU type, per thread (Count)
system.cpu0.statIssuedInstType_0::SimdShaSigma2            0      0.00%     81.31% # Number of instructions issued per FU type, per thread (Count)
system.cpu0.statIssuedInstType_0::SimdShaSigma3            0      0.00%     81.31% # Number of instructions issued per FU type, per thread (Count)
system.cpu0.statIssuedInstType_0::SimdPredAlu            0      0.00%     81.31% # Number of instructions issued per FU type, per thread (Count)
system.cpu0.statIssuedInstType_0::MemRead     11457601     12.10%     93.40% # Number of instructions issued per FU type, per thread (Count)
system.cpu0.statIssuedInstType_0::MemWrite      5893032      6.22%     99.62% # Number of instructions issued per FU type, per thread (Count)
system.cpu0.statIssuedInstType_0::FloatMemRead       195078      0.21%     99.83% # Number of instructions issued per FU type, per thread (Count)
system.cpu0.statIssuedInstType_0::FloatMemWrite       160142      0.17%    100.00% # Number of instructions issued per FU type, per thread (Count)
system.cpu0.statIssuedInstType_0::IprAccess            0      0.00%    100.00% # Number of instructions issued per FU type, per thread (Count)
system.cpu0.statIssuedInstType_0::InstPrefetch            0      0.00%    100.00% # Number of instructions issued per FU type, per thread (Count)
system.cpu0.statIssuedInstType_0::total      94711062                       # Number of instructions issued per FU type, per thread (Count)
system.cpu0.issueRate                        3.144216                       # Inst issue rate ((Count/Cycle))
system.cpu0.fuBusy                            1295942                       # FU busy when requested (Count)
system.cpu0.fuBusyRate                       0.013683                       # FU busy rate (busy events/executed inst) ((Count/Count))
system.cpu0.intInstQueueReads               217570277                       # Number of integer instruction queue reads (Count)
system.cpu0.intInstQueueWrites               99853754                       # Number of integer instruction queue writes (Count)
system.cpu0.intInstQueueWakeupAccesses       93052243                       # Number of integer instruction queue wakeup accesses (Count)
system.cpu0.fpInstQueueReads                  2494484                       # Number of floating instruction queue reads (Count)
system.cpu0.fpInstQueueWrites                 1255717                       # Number of floating instruction queue writes (Count)
system.cpu0.fpInstQueueWakeupAccesses         1208667                       # Number of floating instruction queue wakeup accesses (Count)
system.cpu0.vecInstQueueReads                       0                       # Number of vector instruction queue reads (Count)
system.cpu0.vecInstQueueWrites                      0                       # Number of vector instruction queue writes (Count)
system.cpu0.vecInstQueueWakeupAccesses              0                       # Number of vector instruction queue wakeup accesses (Count)
system.cpu0.intAluAccesses                   93943671                       # Number of integer alu accesses (Count)
system.cpu0.fpAluAccesses                     1273711                       # Number of floating point alu accesses (Count)
system.cpu0.vecAluAccesses                          0                       # Number of vector alu accesses (Count)
system.cpu0.numInsts                         94359798                       # Number of executed instructions (Count)
system.cpu0.numLoadInsts                     11595043                       # Number of load instructions executed (Count)
system.cpu0.numSquashedInsts                   351263                       # Number of squashed instructions skipped in execute (Count)
system.cpu0.numSwp                                  0                       # Number of swp insts executed (Count)
system.cpu0.numNop                                  0                       # Number of nop insts executed (Count)
system.cpu0.numRefs                          17628292                       # Number of memory reference insts executed (Count)
system.cpu0.numBranches                      10657083                       # Number of branches executed (Count)
system.cpu0.numStoreInsts                     6033249                       # Number of stores executed (Count)
system.cpu0.numRate                          3.132554                       # Inst execution rate ((Count/Cycle))
system.cpu0.timesIdled                           1454                       # Number of times that the entire CPU went into an idle state and unscheduled itself (Count)
system.cpu0.idleCycles                         785523                       # Total number of cycles that the CPU has spent unscheduled due to idling (Cycle)
system.cpu0.committedInsts                   49527308                       # Number of Instructions Simulated (Count)
system.cpu0.committedOps                     92210356                       # Number of Ops (including micro ops) Simulated (Count)
system.cpu0.cpi                              0.608196                       # CPI: Cycles Per Instruction ((Cycle/Count))
system.cpu0.totalCpi                         0.608196                       # CPI: Total CPI of All Threads ((Cycle/Count))
system.cpu0.ipc                              1.644206                       # IPC: Instructions Per Cycle ((Count/Cycle))
system.cpu0.totalIpc                         1.644206                       # IPC: Total IPC of All Threads ((Count/Cycle))
system.cpu0.intRegfileReads                 124488336                       # Number of integer regfile reads (Count)
system.cpu0.intRegfileWrites                 68387288                       # Number of integer regfile writes (Count)
system.cpu0.fpRegfileReads                    1457033                       # Number of floating regfile reads (Count)
system.cpu0.fpRegfileWrites                    963247                       # Number of floating regfile writes (Count)
system.cpu0.ccRegfileReads                   62893756                       # number of cc regfile reads (Count)
system.cpu0.ccRegfileWrites                  31075655                       # number of cc regfile writes (Count)
system.cpu0.miscRegfileReads                 38645540                       # number of misc regfile reads (Count)
system.cpu0.miscRegfileWrites                      18                       # number of misc regfile writes (Count)
system.cpu0.MemDepUnit__0.insertedLoads      11710613                       # Number of loads inserted to the mem dependence unit. (Count)
system.cpu0.MemDepUnit__0.insertedStores      6113273                       # Number of stores inserted to the mem dependence unit. (Count)
system.cpu0.MemDepUnit__0.conflictingLoads       562703                       # Number of conflicting loads. (Count)
system.cpu0.MemDepUnit__0.conflictingStores       280349                       # Number of conflicting stores. (Count)
system.cpu0.MemDepUnit__1.insertedLoads             0                       # Number of loads inserted to the mem dependence unit. (Count)
system.cpu0.MemDepUnit__1.insertedStores            0                       # Number of stores inserted to the mem dependence unit. (Count)
system.cpu0.MemDepUnit__1.conflictingLoads            0                       # Number of conflicting loads. (Count)
system.cpu0.MemDepUnit__1.conflictingStores            0                       # Number of conflicting stores. (Count)
system.cpu0.MemDepUnit__2.insertedLoads             0                       # Number of loads inserted to the mem dependence unit. (Count)
system.cpu0.MemDepUnit__2.insertedStores            0                       # Number of stores inserted to the mem dependence unit. (Count)
system.cpu0.MemDepUnit__2.conflictingLoads            0                       # Number of conflicting loads. (Count)
system.cpu0.MemDepUnit__2.conflictingStores            0                       # Number of conflicting stores. (Count)
system.cpu0.MemDepUnit__3.insertedLoads             0                       # Number of loads inserted to the mem dependence unit. (Count)
system.cpu0.MemDepUnit__3.insertedStores            0                       # Number of stores inserted to the mem dependence unit. (Count)
system.cpu0.MemDepUnit__3.conflictingLoads            0                       # Number of conflicting loads. (Count)
system.cpu0.MemDepUnit__3.conflictingStores            0                       # Number of conflicting stores. (Count)
system.cpu0.branchPred.lookups               11361700                       # Number of BP lookups (Count)
system.cpu0.branchPred.condPredicted          9347094                       # Number of conditional branches predicted (Count)
system.cpu0.branchPred.condIncorrect           139371                       # Number of conditional branches incorrect (Count)
system.cpu0.branchPred.BTBLookups             5225567                       # Number of BTB lookups (Count)
system.cpu0.branchPred.BTBUpdates               45316                       # Number of BTB updates (Count)
system.cpu0.branchPred.BTBHits                5221347                       # Number of BTB hits (Count)
system.cpu0.branchPred.BTBHitRatio           0.999192                       # BTB Hit Ratio (Ratio)
system.cpu0.branchPred.RASUsed                 375511                       # Number of times the RAS was used to get a target. (Count)
system.cpu0.branchPred.RASIncorrect                 5                       # Number of incorrect RAS predictions. (Count)
system.cpu0.branchPred.indirectLookups         216005                       # Number of indirect predictor lookups. (Count)
system.cpu0.branchPred.indirectHits            213585                       # Number of indirect target hits. (Count)
system.cpu0.branchPred.indirectMisses            2420                       # Number of indirect misses. (Count)
system.cpu0.branchPred.indirectMispredicted        11055                       # Number of mispredicted indirect branches. (Count)
system.cpu0.commit.commitSquashedInsts        4440869                       # The number of squashed insts skipped by commit (Count)
system.cpu0.commit.commitNonSpecStalls          31719                       # The number of times commit has been forced to stall to communicate backwards (Count)
system.cpu0.commit.branchMispredicts           139432                       # The number of times a branch was mispredicted (Count)
system.cpu0.commit.numCommittedDist::samples     28724140                       # Number of insts commited each cycle (Count)
system.cpu0.commit.numCommittedDist::mean     3.210204                       # Number of insts commited each cycle (Count)
system.cpu0.commit.numCommittedDist::stdev     2.977541                       # Number of insts commited each cycle (Count)
system.cpu0.commit.numCommittedDist::underflows            0      0.00%      0.00% # Number of insts commited each cycle (Count)
system.cpu0.commit.numCommittedDist::0        6720997     23.40%     23.40% # Number of insts commited each cycle (Count)
system.cpu0.commit.numCommittedDist::1        4838385     16.84%     40.24% # Number of insts commited each cycle (Count)
system.cpu0.commit.numCommittedDist::2        2791771      9.72%     49.96% # Number of insts commited each cycle (Count)
system.cpu0.commit.numCommittedDist::3        4431496     15.43%     65.39% # Number of insts commited each cycle (Count)
system.cpu0.commit.numCommittedDist::4        1218750      4.24%     69.63% # Number of insts commited each cycle (Count)
system.cpu0.commit.numCommittedDist::5        1392136      4.85%     74.48% # Number of insts commited each cycle (Count)
system.cpu0.commit.numCommittedDist::6         561379      1.95%     76.43% # Number of insts commited each cycle (Count)
system.cpu0.commit.numCommittedDist::7         863821      3.01%     79.44% # Number of insts commited each cycle (Count)
system.cpu0.commit.numCommittedDist::8        5905405     20.56%    100.00% # Number of insts commited each cycle (Count)
system.cpu0.commit.numCommittedDist::overflows            0      0.00%    100.00% # Number of insts commited each cycle (Count)
system.cpu0.commit.numCommittedDist::min_value            0                       # Number of insts commited each cycle (Count)
system.cpu0.commit.numCommittedDist::max_value            8                       # Number of insts commited each cycle (Count)
system.cpu0.commit.numCommittedDist::total     28724140                       # Number of insts commited each cycle (Count)
system.cpu0.commit.instsCommitted            49527308                       # Number of instructions committed (Count)
system.cpu0.commit.opsCommitted              92210356                       # Number of ops (including micro ops) committed (Count)
system.cpu0.commit.memRefs                   17228299                       # Number of memory references committed (Count)
system.cpu0.commit.loads                     11282204                       # Number of loads committed (Count)
system.cpu0.commit.amos                             0                       # Number of atomic instructions committed (Count)
system.cpu0.commit.membars                      21134                       # Number of memory barriers committed (Count)
system.cpu0.commit.branches                  10492855                       # Number of branches committed (Count)
system.cpu0.commit.vectorInstructions               0                       # Number of committed Vector instructions. (Count)
system.cpu0.commit.floating                   1198439                       # Number of committed floating point instructions. (Count)
system.cpu0.commit.integer                   90522583                       # Number of committed integer instructions. (Count)
system.cpu0.commit.functionCalls               367510                       # Number of function calls committed. (Count)
system.cpu0.commit.committedInstType_0::No_OpClass       755969      0.82%      0.82% # Class of committed instruction (Count)
system.cpu0.commit.committedInstType_0::IntAlu     72832023     78.98%     79.80% # Class of committed instruction (Count)
system.cpu0.commit.committedInstType_0::IntMult        21145      0.02%     79.83% # Class of committed instruction (Count)
system.cpu0.commit.committedInstType_0::IntDiv       567421      0.62%     80.44% # Class of committed instruction (Count)
system.cpu0.commit.committedInstType_0::FloatAdd       178777      0.19%     80.64% # Class of committed instruction (Count)
system.cpu0.commit.committedInstType_0::FloatCmp            0      0.00%     80.64% # Class of committed instruction (Count)
system.cpu0.commit.committedInstType_0::FloatCvt           32      0.00%     80.64% # Class of committed instruction (Count)
system.cpu0.commit.committedInstType_0::FloatMult            0      0.00%     80.64% # Class of committed instruction (Count)
system.cpu0.commit.committedInstType_0::FloatMultAcc            0      0.00%     80.64% # Class of committed instruction (Count)
system.cpu0.commit.committedInstType_0::FloatDiv            0      0.00%     80.64% # Class of committed instruction (Count)
system.cpu0.commit.committedInstType_0::FloatMisc            0      0.00%     80.64% # Class of committed instruction (Count)
system.cpu0.commit.committedInstType_0::FloatSqrt            0      0.00%     80.64% # Class of committed instruction (Count)
system.cpu0.commit.committedInstType_0::SimdAdd          602      0.00%     80.64% # Class of committed instruction (Count)
system.cpu0.commit.committedInstType_0::SimdAddAcc            0      0.00%     80.64% # Class of committed instruction (Count)
system.cpu0.commit.committedInstType_0::SimdAlu       359873      0.39%     81.03% # Class of committed instruction (Count)
system.cpu0.commit.committedInstType_0::SimdCmp            6      0.00%     81.03% # Class of committed instruction (Count)
system.cpu0.commit.committedInstType_0::SimdCvt        85756      0.09%     81.12% # Class of committed instruction (Count)
system.cpu0.commit.committedInstType_0::SimdMisc       164807      0.18%     81.30% # Class of committed instruction (Count)
system.cpu0.commit.committedInstType_0::SimdMult            0      0.00%     81.30% # Class of committed instruction (Count)
system.cpu0.commit.committedInstType_0::SimdMultAcc            0      0.00%     81.30% # Class of committed instruction (Count)
system.cpu0.commit.committedInstType_0::SimdShift          354      0.00%     81.30% # Class of committed instruction (Count)
system.cpu0.commit.committedInstType_0::SimdShiftAcc            0      0.00%     81.30% # Class of committed instruction (Count)
system.cpu0.commit.committedInstType_0::SimdDiv            0      0.00%     81.30% # Class of committed instruction (Count)
system.cpu0.commit.committedInstType_0::SimdSqrt            0      0.00%     81.30% # Class of committed instruction (Count)
system.cpu0.commit.committedInstType_0::SimdFloatAdd        15292      0.02%     81.32% # Class of committed instruction (Count)
system.cpu0.commit.committedInstType_0::SimdFloatAlu            0      0.00%     81.32% # Class of committed instruction (Count)
system.cpu0.commit.committedInstType_0::SimdFloatCmp            0      0.00%     81.32% # Class of committed instruction (Count)
system.cpu0.commit.committedInstType_0::SimdFloatCvt            0      0.00%     81.32% # Class of committed instruction (Count)
system.cpu0.commit.committedInstType_0::SimdFloatDiv            0      0.00%     81.32% # Class of committed instruction (Count)
system.cpu0.commit.committedInstType_0::SimdFloatMisc            0      0.00%     81.32% # Class of committed instruction (Count)
system.cpu0.commit.committedInstType_0::SimdFloatMult            0      0.00%     81.32% # Class of committed instruction (Count)
system.cpu0.commit.committedInstType_0::SimdFloatMultAcc            0      0.00%     81.32% # Class of committed instruction (Count)
system.cpu0.commit.committedInstType_0::SimdFloatSqrt            0      0.00%     81.32% # Class of committed instruction (Count)
system.cpu0.commit.committedInstType_0::SimdReduceAdd            0      0.00%     81.32% # Class of committed instruction (Count)
system.cpu0.commit.committedInstType_0::SimdReduceAlu            0      0.00%     81.32% # Class of committed instruction (Count)
system.cpu0.commit.committedInstType_0::SimdReduceCmp            0      0.00%     81.32% # Class of committed instruction (Count)
system.cpu0.commit.committedInstType_0::SimdFloatReduceAdd            0      0.00%     81.32% # Class of committed instruction (Count)
system.cpu0.commit.committedInstType_0::SimdFloatReduceCmp            0      0.00%     81.32% # Class of committed instruction (Count)
system.cpu0.commit.committedInstType_0::SimdAes            0      0.00%     81.32% # Class of committed instruction (Count)
system.cpu0.commit.committedInstType_0::SimdAesMix            0      0.00%     81.32% # Class of committed instruction (Count)
system.cpu0.commit.committedInstType_0::SimdSha1Hash            0      0.00%     81.32% # Class of committed instruction (Count)
system.cpu0.commit.committedInstType_0::SimdSha1Hash2            0      0.00%     81.32% # Class of committed instruction (Count)
system.cpu0.commit.committedInstType_0::SimdSha256Hash            0      0.00%     81.32% # Class of committed instruction (Count)
system.cpu0.commit.committedInstType_0::SimdSha256Hash2            0      0.00%     81.32% # Class of committed instruction (Count)
system.cpu0.commit.committedInstType_0::SimdShaSigma2            0      0.00%     81.32% # Class of committed instruction (Count)
system.cpu0.commit.committedInstType_0::SimdShaSigma3            0      0.00%     81.32% # Class of committed instruction (Count)
system.cpu0.commit.committedInstType_0::SimdPredAlu            0      0.00%     81.32% # Class of committed instruction (Count)
system.cpu0.commit.committedInstType_0::MemRead     11097002     12.03%     93.35% # Class of committed instruction (Count)
system.cpu0.commit.committedInstType_0::MemWrite      5786357      6.28%     99.63% # Class of committed instruction (Count)
system.cpu0.commit.committedInstType_0::FloatMemRead       185202      0.20%     99.83% # Class of committed instruction (Count)
system.cpu0.commit.committedInstType_0::FloatMemWrite       159738      0.17%    100.00% # Class of committed instruction (Count)
system.cpu0.commit.committedInstType_0::IprAccess            0      0.00%    100.00% # Class of committed instruction (Count)
system.cpu0.commit.committedInstType_0::InstPrefetch            0      0.00%    100.00% # Class of committed instruction (Count)
system.cpu0.commit.committedInstType_0::total     92210356                       # Class of committed instruction (Count)
system.cpu0.commit.commitEligibleSamples      5905405                       # number cycles where commit BW limit reached (Cycle)
system.cpu0.decode.idleCycles                 8726735                       # Number of cycles decode is idle (Cycle)
system.cpu0.decode.blockedCycles              4659644                       # Number of cycles decode is blocked (Cycle)
system.cpu0.decode.runCycles                 15489170                       # Number of cycles decode is running (Cycle)
system.cpu0.decode.unblockCycles               315592                       # Number of cycles decode is unblocking (Cycle)
system.cpu0.decode.squashCycles                145653                       # Number of cycles decode is squashing (Cycle)
system.cpu0.decode.branchResolved             5105623                       # Number of times decode resolved a branch (Count)
system.cpu0.decode.branchMispred                  755                       # Number of times decode detected a branch misprediction (Count)
system.cpu0.decode.decodedInsts              98390587                       # Number of instructions handled by decode (Count)
system.cpu0.decode.squashedInsts                 3792                       # Number of squashed instructions handled by decode (Count)
system.cpu0.fetch.icacheStallCycles           8289161                       # Number of cycles fetch is stalled on an Icache miss (Cycle)
system.cpu0.fetch.insts                      52895454                       # Number of instructions fetch has processed (Count)
system.cpu0.fetch.branches                   11361700                       # Number of branches that fetch encountered (Count)
system.cpu0.fetch.predictedBranches           5810443                       # Number of branches that fetch has predicted taken (Count)
system.cpu0.fetch.cycles                     20781039                       # Number of cycles fetch has run and was not squashing or blocked (Cycle)
system.cpu0.fetch.squashCycles                 292798                       # Number of cycles fetch has spent squashing (Cycle)
system.cpu0.fetch.miscStallCycles                2812                       # Number of cycles fetch has spent waiting on interrupts, or bad addresses, or out of MSHRs (Cycle)
system.cpu0.fetch.pendingTrapStallCycles         5948                       # Number of stall cycles due to pending traps (Cycle)
system.cpu0.fetch.icacheWaitRetryStallCycles       111435                       # Number of stall cycles due to full MSHR (Cycle)
system.cpu0.fetch.cacheLines                  8069282                       # Number of cache lines fetched (Count)
system.cpu0.fetch.icacheSquashes                49304                       # Number of outstanding Icache misses that were squashed (Count)
system.cpu0.fetch.nisnDist::samples          29336794                       # Number of instructions fetched each cycle (Total) (Count)
system.cpu0.fetch.nisnDist::mean             3.389097                       # Number of instructions fetched each cycle (Total) (Count)
system.cpu0.fetch.nisnDist::stdev            3.533808                       # Number of instructions fetched each cycle (Total) (Count)
system.cpu0.fetch.nisnDist::underflows              0      0.00%      0.00% # Number of instructions fetched each cycle (Total) (Count)
system.cpu0.fetch.nisnDist::0                13164082     44.87%     44.87% # Number of instructions fetched each cycle (Total) (Count)
system.cpu0.fetch.nisnDist::1                  824432      2.81%     47.68% # Number of instructions fetched each cycle (Total) (Count)
system.cpu0.fetch.nisnDist::2                 1100378      3.75%     51.43% # Number of instructions fetched each cycle (Total) (Count)
system.cpu0.fetch.nisnDist::3                 1395926      4.76%     56.19% # Number of instructions fetched each cycle (Total) (Count)
system.cpu0.fetch.nisnDist::4                 1003593      3.42%     59.61% # Number of instructions fetched each cycle (Total) (Count)
system.cpu0.fetch.nisnDist::5                 1451069      4.95%     64.56% # Number of instructions fetched each cycle (Total) (Count)
system.cpu0.fetch.nisnDist::6                  650705      2.22%     66.78% # Number of instructions fetched each cycle (Total) (Count)
system.cpu0.fetch.nisnDist::7                  934533      3.19%     69.96% # Number of instructions fetched each cycle (Total) (Count)
system.cpu0.fetch.nisnDist::8                 8812076     30.04%    100.00% # Number of instructions fetched each cycle (Total) (Count)
system.cpu0.fetch.nisnDist::overflows               0      0.00%    100.00% # Number of instructions fetched each cycle (Total) (Count)
system.cpu0.fetch.nisnDist::min_value               0                       # Number of instructions fetched each cycle (Total) (Count)
system.cpu0.fetch.nisnDist::max_value               8                       # Number of instructions fetched each cycle (Total) (Count)
system.cpu0.fetch.nisnDist::total            29336794                       # Number of instructions fetched each cycle (Total) (Count)
system.cpu0.fetch.branchRate                 0.377185                       # Number of branch fetches per cycle (Ratio)
system.cpu0.fetch.rate                       1.756022                       # Number of inst fetches per cycle ((Count/Cycle))
system.cpu0.iew.idleCycles                          0                       # Number of cycles IEW is idle (Cycle)
system.cpu0.iew.squashCycles                   145653                       # Number of cycles IEW is squashing (Cycle)
system.cpu0.iew.blockCycles                   1452049                       # Number of cycles IEW is blocking (Cycle)
system.cpu0.iew.unblockCycles                  115225                       # Number of cycles IEW is unblocking (Cycle)
system.cpu0.iew.dispatchedInsts              96656947                       # Number of instructions dispatched to IQ (Count)
system.cpu0.iew.dispSquashedInsts               86591                       # Number of squashed instructions skipped by dispatch (Count)
system.cpu0.iew.dispLoadInsts                11710613                       # Number of dispatched load instructions (Count)
system.cpu0.iew.dispStoreInsts                6113273                       # Number of dispatched store instructions (Count)
system.cpu0.iew.dispNonSpecInsts                10622                       # Number of dispatched non-speculative instructions (Count)
system.cpu0.iew.iqFullEvents                    27436                       # Number of times the IQ has become full, causing a stall (Count)
system.cpu0.iew.lsqFullEvents                   81257                       # Number of times the LSQ has become full, causing a stall (Count)
system.cpu0.iew.memOrderViolationEvents          5982                       # Number of memory order violations (Count)
system.cpu0.iew.predictedTakenIncorrect         93866                       # Number of branches that were predicted taken incorrectly (Count)
system.cpu0.iew.predictedNotTakenIncorrect        48226                       # Number of branches that were predicted not taken incorrectly (Count)
system.cpu0.iew.branchMispredicts              142092                       # Number of branch mispredicts detected at execute (Count)
system.cpu0.iew.instsToCommit                94306826                       # Cumulative count of insts sent to commit (Count)
system.cpu0.iew.writebackCount               94260910                       # Cumulative count of insts written-back (Count)
system.cpu0.iew.producerInst                 69013543                       # Number of instructions producing a value (Count)
system.cpu0.iew.consumerInst                117081490                       # Number of instructions consuming a value (Count)
system.cpu0.iew.wbRate                       3.129272                       # Insts written-back per cycle ((Count/Cycle))
system.cpu0.iew.wbFanout                     0.589449                       # Average fanout of values written-back ((Count/Count))
system.cpu0.interrupts.clk_domain.clock          8000                       # Clock period in ticks (Tick)
system.cpu0.lsq0.forwLoads                    2077232                       # Number of loads that had data forwarded from stores (Count)
system.cpu0.lsq0.squashedLoads                 428406                       # Number of loads squashed (Count)
system.cpu0.lsq0.ignoredResponses                2011                       # Number of memory responses ignored because the instruction is squashed (Count)
system.cpu0.lsq0.memOrderViolation               5982                       # Number of memory ordering violations (Count)
system.cpu0.lsq0.squashedStores                167178                       # Number of stores squashed (Count)
system.cpu0.lsq0.rescheduledLoads                5275                       # Number of loads that were rescheduled (Count)
system.cpu0.lsq0.blockedByCache                   869                       # Number of times an access to memory failed due to the cache being blocked (Count)
system.cpu0.lsq0.loadToUse::samples          11282204                       # Distribution of cycle latency between the first time a load is issued and its completion (Unspecified)
system.cpu0.lsq0.loadToUse::mean             3.381537                       # Distribution of cycle latency between the first time a load is issued and its completion (Unspecified)
system.cpu0.lsq0.loadToUse::stdev           22.412671                       # Distribution of cycle latency between the first time a load is issued and its completion (Unspecified)
system.cpu0.lsq0.loadToUse::0-9              11268940     99.88%     99.88% # Distribution of cycle latency between the first time a load is issued and its completion (Unspecified)
system.cpu0.lsq0.loadToUse::10-19                   6      0.00%     99.88% # Distribution of cycle latency between the first time a load is issued and its completion (Unspecified)
system.cpu0.lsq0.loadToUse::20-29                  17      0.00%     99.88% # Distribution of cycle latency between the first time a load is issued and its completion (Unspecified)
system.cpu0.lsq0.loadToUse::30-39                5270      0.05%     99.93% # Distribution of cycle latency between the first time a load is issued and its completion (Unspecified)
system.cpu0.lsq0.loadToUse::40-49                   9      0.00%     99.93% # Distribution of cycle latency between the first time a load is issued and its completion (Unspecified)
system.cpu0.lsq0.loadToUse::50-59                  18      0.00%     99.93% # Distribution of cycle latency between the first time a load is issued and its completion (Unspecified)
system.cpu0.lsq0.loadToUse::60-69                  26      0.00%     99.93% # Distribution of cycle latency between the first time a load is issued and its completion (Unspecified)
system.cpu0.lsq0.loadToUse::70-79                  15      0.00%     99.93% # Distribution of cycle latency between the first time a load is issued and its completion (Unspecified)
system.cpu0.lsq0.loadToUse::80-89                   7      0.00%     99.93% # Distribution of cycle latency between the first time a load is issued and its completion (Unspecified)
system.cpu0.lsq0.loadToUse::90-99                   5      0.00%     99.93% # Distribution of cycle latency between the first time a load is issued and its completion (Unspecified)
system.cpu0.lsq0.loadToUse::100-109                 6      0.00%     99.93% # Distribution of cycle latency between the first time a load is issued and its completion (Unspecified)
system.cpu0.lsq0.loadToUse::110-119                 2      0.00%     99.93% # Distribution of cycle latency between the first time a load is issued and its completion (Unspecified)
system.cpu0.lsq0.loadToUse::120-129                10      0.00%     99.93% # Distribution of cycle latency between the first time a load is issued and its completion (Unspecified)
system.cpu0.lsq0.loadToUse::130-139                 4      0.00%     99.93% # Distribution of cycle latency between the first time a load is issued and its completion (Unspecified)
system.cpu0.lsq0.loadToUse::140-149                 8      0.00%     99.93% # Distribution of cycle latency between the first time a load is issued and its completion (Unspecified)
system.cpu0.lsq0.loadToUse::150-159                 8      0.00%     99.93% # Distribution of cycle latency between the first time a load is issued and its completion (Unspecified)
system.cpu0.lsq0.loadToUse::160-169                15      0.00%     99.93% # Distribution of cycle latency between the first time a load is issued and its completion (Unspecified)
system.cpu0.lsq0.loadToUse::170-179                21      0.00%     99.93% # Distribution of cycle latency between the first time a load is issued and its completion (Unspecified)
system.cpu0.lsq0.loadToUse::180-189                35      0.00%     99.93% # Distribution of cycle latency between the first time a load is issued and its completion (Unspecified)
system.cpu0.lsq0.loadToUse::190-199                 6      0.00%     99.93% # Distribution of cycle latency between the first time a load is issued and its completion (Unspecified)
system.cpu0.lsq0.loadToUse::200-209                19      0.00%     99.93% # Distribution of cycle latency between the first time a load is issued and its completion (Unspecified)
system.cpu0.lsq0.loadToUse::210-219                20      0.00%     99.93% # Distribution of cycle latency between the first time a load is issued and its completion (Unspecified)
system.cpu0.lsq0.loadToUse::220-229                32      0.00%     99.93% # Distribution of cycle latency between the first time a load is issued and its completion (Unspecified)
system.cpu0.lsq0.loadToUse::230-239                46      0.00%     99.93% # Distribution of cycle latency between the first time a load is issued and its completion (Unspecified)
system.cpu0.lsq0.loadToUse::240-249                86      0.00%     99.93% # Distribution of cycle latency between the first time a load is issued and its completion (Unspecified)
system.cpu0.lsq0.loadToUse::250-259                10      0.00%     99.93% # Distribution of cycle latency between the first time a load is issued and its completion (Unspecified)
system.cpu0.lsq0.loadToUse::260-269                21      0.00%     99.93% # Distribution of cycle latency between the first time a load is issued and its completion (Unspecified)
system.cpu0.lsq0.loadToUse::270-279                14      0.00%     99.93% # Distribution of cycle latency between the first time a load is issued and its completion (Unspecified)
system.cpu0.lsq0.loadToUse::280-289                25      0.00%     99.93% # Distribution of cycle latency between the first time a load is issued and its completion (Unspecified)
system.cpu0.lsq0.loadToUse::290-299                51      0.00%     99.93% # Distribution of cycle latency between the first time a load is issued and its completion (Unspecified)
system.cpu0.lsq0.loadToUse::overflows            7452      0.07%    100.00% # Distribution of cycle latency between the first time a load is issued and its completion (Unspecified)
system.cpu0.lsq0.loadToUse::min_value               2                       # Distribution of cycle latency between the first time a load is issued and its completion (Unspecified)
system.cpu0.lsq0.loadToUse::max_value            2397                       # Distribution of cycle latency between the first time a load is issued and its completion (Unspecified)
system.cpu0.lsq0.loadToUse::total            11282204                       # Distribution of cycle latency between the first time a load is issued and its completion (Unspecified)
system.cpu0.mmu.dtb.rdAccesses               11592428                       # TLB accesses on read requests (Count)
system.cpu0.mmu.dtb.wrAccesses                6033255                       # TLB accesses on write requests (Count)
system.cpu0.mmu.dtb.rdMisses                      931                       # TLB misses on read requests (Count)
system.cpu0.mmu.dtb.wrMisses                      265                       # TLB misses on write requests (Count)
system.cpu0.mmu.dtb.walker.power_state.pwrStateResidencyTicks::UNDEFINED  15061158000                       # Cumulative time (in ticks) in various power states (Tick)
system.cpu0.mmu.itb.rdAccesses                      0                       # TLB accesses on read requests (Count)
system.cpu0.mmu.itb.wrAccesses                8070128                       # TLB accesses on write requests (Count)
system.cpu0.mmu.itb.rdMisses                        0                       # TLB misses on read requests (Count)
system.cpu0.mmu.itb.wrMisses                     1279                       # TLB misses on write requests (Count)
system.cpu0.mmu.itb.walker.power_state.pwrStateResidencyTicks::UNDEFINED  15061158000                       # Cumulative time (in ticks) in various power states (Tick)
system.cpu0.power_state.pwrStateResidencyTicks::ON  15061158000                       # Cumulative time (in ticks) in various power states (Tick)
system.cpu0.rename.squashCycles                145653                       # Number of cycles rename is squashing (Cycle)
system.cpu0.rename.idleCycles                 8920902                       # Number of cycles rename is idle (Cycle)
system.cpu0.rename.blockCycles                1899727                       # Number of cycles rename is blocking (Cycle)
system.cpu0.rename.serializeStallCycles          4727                       # count of cycles rename stalled for serializing inst (Cycle)
system.cpu0.rename.runCycles                 15579394                       # Number of cycles rename is running (Cycle)
system.cpu0.rename.unblockCycles              2786391                       # Number of cycles rename is unblocking (Cycle)
system.cpu0.rename.renamedInsts              97788999                       # Number of instructions processed by rename (Count)
system.cpu0.rename.ROBFullEvents                24216                       # Number of times rename has blocked due to ROB full (Count)
system.cpu0.rename.IQFullEvents                556566                       # Number of times rename has blocked due to IQ full (Count)
system.cpu0.rename.LQFullEvents                 28881                       # Number of times rename has blocked due to LQ full (Count)
system.cpu0.rename.SQFullEvents               2149588                       # Number of times rename has blocked due to SQ full (Count)
system.cpu0.rename.renamedOperands          164962008                       # Number of destination operands rename has renamed (Count)
system.cpu0.rename.lookups                  339053369                       # Number of register rename lookups that rename has made (Count)
system.cpu0.rename.intLookups               131733873                       # Number of integer rename lookups (Count)
system.cpu0.rename.fpLookups                  1482906                       # Number of floating rename lookups (Count)
system.cpu0.rename.committedMaps            153944317                       # Number of HB maps that are committed (Count)
system.cpu0.rename.undoneMaps                11017642                       # Number of HB maps that are undone due to squashing (Count)
system.cpu0.rename.serializing                     80                       # count of serializing insts renamed (Count)
system.cpu0.rename.tempSerializing                 65                       # count of temporary serializing insts renamed (Count)
system.cpu0.rename.skidInsts                  1615489                       # count of insts added to the skid buffer (Count)
system.cpu0.rob.reads                       119466021                       # The number of ROB reads (Count)
system.cpu0.rob.writes                      193915637                       # The number of ROB writes (Count)
system.cpu0.thread_0.numInsts                49527308                       # Number of Instructions committed (Count)
system.cpu0.thread_0.numOps                  92210356                       # Number of Ops committed (Count)
system.cpu0.thread_0.numMemRefs                     0                       # Number of Memory References (Count)
system.cpu0.workload.numSyscalls                   91                       # Number of system calls (Count)
system.cpu1.numCycles                        30122317                       # Number of cpu cycles simulated (Cycle)
system.cpu1.numWorkItemsStarted                     0                       # Number of work items this cpu started (Count)
system.cpu1.numWorkItemsCompleted                   0                       # Number of work items this cpu completed (Count)
system.cpu1.instsAdded                       97286123                       # Number of instructions added to the IQ (excludes non-spec) (Count)
system.cpu1.nonSpecInstsAdded                   32047                       # Number of non-speculative instructions added to the IQ (Count)
system.cpu1.instsIssued                      95358867                       # Number of instructions issued (Count)
system.cpu1.squashedInstsIssued                  9964                       # Number of squashed instructions issued (Count)
system.cpu1.squashedInstsExamined             4476001                       # Number of squashed instructions iterated over during squash; mainly for profiling (Count)
system.cpu1.squashedOperandsExamined         11366657                       # Number of squashed operands that are examined and possibly removed from graph (Count)
system.cpu1.squashedNonSpecRemoved                106                       # Number of squashed non-spec instructions that were removed (Count)
system.cpu1.numIssuedDist::samples           29383911                       # Number of insts issued each cycle (Count)
system.cpu1.numIssuedDist::mean              3.245275                       # Number of insts issued each cycle (Count)
system.cpu1.numIssuedDist::stdev             2.393395                       # Number of insts issued each cycle (Count)
system.cpu1.numIssuedDist::underflows               0      0.00%      0.00% # Number of insts issued each cycle (Count)
system.cpu1.numIssuedDist::0                  5499937     18.72%     18.72% # Number of insts issued each cycle (Count)
system.cpu1.numIssuedDist::1                  3310016     11.26%     29.98% # Number of insts issued each cycle (Count)
system.cpu1.numIssuedDist::2                  3119490     10.62%     40.60% # Number of insts issued each cycle (Count)
system.cpu1.numIssuedDist::3                  3906535     13.29%     53.89% # Number of insts issued each cycle (Count)
system.cpu1.numIssuedDist::4                  3910645     13.31%     67.20% # Number of insts issued each cycle (Count)
system.cpu1.numIssuedDist::5                  3533655     12.03%     79.23% # Number of insts issued each cycle (Count)
system.cpu1.numIssuedDist::6                  3020294     10.28%     89.51% # Number of insts issued each cycle (Count)
system.cpu1.numIssuedDist::7                  2009065      6.84%     96.34% # Number of insts issued each cycle (Count)
system.cpu1.numIssuedDist::8                  1074274      3.66%    100.00% # Number of insts issued each cycle (Count)
system.cpu1.numIssuedDist::overflows                0      0.00%    100.00% # Number of insts issued each cycle (Count)
system.cpu1.numIssuedDist::min_value                0                       # Number of insts issued each cycle (Count)
system.cpu1.numIssuedDist::max_value                8                       # Number of insts issued each cycle (Count)
system.cpu1.numIssuedDist::total             29383911                       # Number of insts issued each cycle (Count)
system.cpu1.statFuBusy::No_OpClass                  0      0.00%      0.00% # attempts to use FU when none available (Count)
system.cpu1.statFuBusy::IntAlu                1078188     82.73%     82.73% # attempts to use FU when none available (Count)
system.cpu1.statFuBusy::IntMult                     0      0.00%     82.73% # attempts to use FU when none available (Count)
system.cpu1.statFuBusy::IntDiv                      0      0.00%     82.73% # attempts to use FU when none available (Count)
system.cpu1.statFuBusy::FloatAdd                    0      0.00%     82.73% # attempts to use FU when none available (Count)
system.cpu1.statFuBusy::FloatCmp                    0      0.00%     82.73% # attempts to use FU when none available (Count)
system.cpu1.statFuBusy::FloatCvt                    0      0.00%     82.73% # attempts to use FU when none available (Count)
system.cpu1.statFuBusy::FloatMult                   0      0.00%     82.73% # attempts to use FU when none available (Count)
system.cpu1.statFuBusy::FloatMultAcc                0      0.00%     82.73% # attempts to use FU when none available (Count)
system.cpu1.statFuBusy::FloatDiv                    0      0.00%     82.73% # attempts to use FU when none available (Count)
system.cpu1.statFuBusy::FloatMisc                   0      0.00%     82.73% # attempts to use FU when none available (Count)
system.cpu1.statFuBusy::FloatSqrt                   0      0.00%     82.73% # attempts to use FU when none available (Count)
system.cpu1.statFuBusy::SimdAdd                     2      0.00%     82.73% # attempts to use FU when none available (Count)
system.cpu1.statFuBusy::SimdAddAcc                  0      0.00%     82.73% # attempts to use FU when none available (Count)
system.cpu1.statFuBusy::SimdAlu                 42487      3.26%     85.99% # attempts to use FU when none available (Count)
system.cpu1.statFuBusy::SimdCmp                     0      0.00%     85.99% # attempts to use FU when none available (Count)
system.cpu1.statFuBusy::SimdCvt                    76      0.01%     85.99% # attempts to use FU when none available (Count)
system.cpu1.statFuBusy::SimdMisc                    0      0.00%     85.99% # attempts to use FU when none available (Count)
system.cpu1.statFuBusy::SimdMult                    0      0.00%     85.99% # attempts to use FU when none available (Count)
system.cpu1.statFuBusy::SimdMultAcc                 0      0.00%     85.99% # attempts to use FU when none available (Count)
system.cpu1.statFuBusy::SimdShift                  50      0.00%     86.00% # attempts to use FU when none available (Count)
system.cpu1.statFuBusy::SimdShiftAcc                0      0.00%     86.00% # attempts to use FU when none available (Count)
system.cpu1.statFuBusy::SimdDiv                     0      0.00%     86.00% # attempts to use FU when none available (Count)
system.cpu1.statFuBusy::SimdSqrt                    0      0.00%     86.00% # attempts to use FU when none available (Count)
system.cpu1.statFuBusy::SimdFloatAdd                0      0.00%     86.00% # attempts to use FU when none available (Count)
system.cpu1.statFuBusy::SimdFloatAlu                0      0.00%     86.00% # attempts to use FU when none available (Count)
system.cpu1.statFuBusy::SimdFloatCmp                0      0.00%     86.00% # attempts to use FU when none available (Count)
system.cpu1.statFuBusy::SimdFloatCvt                0      0.00%     86.00% # attempts to use FU when none available (Count)
system.cpu1.statFuBusy::SimdFloatDiv                0      0.00%     86.00% # attempts to use FU when none available (Count)
system.cpu1.statFuBusy::SimdFloatMisc               0      0.00%     86.00% # attempts to use FU when none available (Count)
system.cpu1.statFuBusy::SimdFloatMult               0      0.00%     86.00% # attempts to use FU when none available (Count)
system.cpu1.statFuBusy::SimdFloatMultAcc            0      0.00%     86.00% # attempts to use FU when none available (Count)
system.cpu1.statFuBusy::SimdFloatSqrt               0      0.00%     86.00% # attempts to use FU when none available (Count)
system.cpu1.statFuBusy::SimdReduceAdd               0      0.00%     86.00% # attempts to use FU when none available (Count)
system.cpu1.statFuBusy::SimdReduceAlu               0      0.00%     86.00% # attempts to use FU when none available (Count)
system.cpu1.statFuBusy::SimdReduceCmp               0      0.00%     86.00% # attempts to use FU when none available (Count)
system.cpu1.statFuBusy::SimdFloatReduceAdd            0      0.00%     86.00% # attempts to use FU when none available (Count)
system.cpu1.statFuBusy::SimdFloatReduceCmp            0      0.00%     86.00% # attempts to use FU when none available (Count)
system.cpu1.statFuBusy::SimdAes                     0      0.00%     86.00% # attempts to use FU when none available (Count)
system.cpu1.statFuBusy::SimdAesMix                  0      0.00%     86.00% # attempts to use FU when none available (Count)
system.cpu1.statFuBusy::SimdSha1Hash                0      0.00%     86.00% # attempts to use FU when none available (Count)
system.cpu1.statFuBusy::SimdSha1Hash2               0      0.00%     86.00% # attempts to use FU when none available (Count)
system.cpu1.statFuBusy::SimdSha256Hash              0      0.00%     86.00% # attempts to use FU when none available (Count)
system.cpu1.statFuBusy::SimdSha256Hash2             0      0.00%     86.00% # attempts to use FU when none available (Count)
system.cpu1.statFuBusy::SimdShaSigma2               0      0.00%     86.00% # attempts to use FU when none available (Count)
system.cpu1.statFuBusy::SimdShaSigma3               0      0.00%     86.00% # attempts to use FU when none available (Count)
system.cpu1.statFuBusy::SimdPredAlu                 0      0.00%     86.00% # attempts to use FU when none available (Count)
system.cpu1.statFuBusy::MemRead                127933      9.82%     95.81% # attempts to use FU when none available (Count)
system.cpu1.statFuBusy::MemWrite                43804      3.36%     99.17% # attempts to use FU when none available (Count)
system.cpu1.statFuBusy::FloatMemRead            10689      0.82%     99.99% # attempts to use FU when none available (Count)
system.cpu1.statFuBusy::FloatMemWrite              66      0.01%    100.00% # attempts to use FU when none available (Count)
system.cpu1.statFuBusy::IprAccess                   0      0.00%    100.00% # attempts to use FU when none available (Count)
system.cpu1.statFuBusy::InstPrefetch                0      0.00%    100.00% # attempts to use FU when none available (Count)
system.cpu1.statIssuedInstType_0::No_OpClass       795087      0.83%      0.83% # Number of instructions issued per FU type, per thread (Count)
system.cpu1.statIssuedInstType_0::IntAlu     75277341     78.94%     79.77% # Number of instructions issued per FU type, per thread (Count)
system.cpu1.statIssuedInstType_0::IntMult        21993      0.02%     79.80% # Number of instructions issued per FU type, per thread (Count)
system.cpu1.statIssuedInstType_0::IntDiv       614540      0.64%     80.44% # Number of instructions issued per FU type, per thread (Count)
system.cpu1.statIssuedInstType_0::FloatAdd       187610      0.20%     80.64% # Number of instructions issued per FU type, per thread (Count)
system.cpu1.statIssuedInstType_0::FloatCmp            0      0.00%     80.64% # Number of instructions issued per FU type, per thread (Count)
system.cpu1.statIssuedInstType_0::FloatCvt           32      0.00%     80.64% # Number of instructions issued per FU type, per thread (Count)
system.cpu1.statIssuedInstType_0::FloatMult            0      0.00%     80.64% # Number of instructions issued per FU type, per thread (Count)
system.cpu1.statIssuedInstType_0::FloatMultAcc            0      0.00%     80.64% # Number of instructions issued per FU type, per thread (Count)
system.cpu1.statIssuedInstType_0::FloatDiv            0      0.00%     80.64% # Number of instructions issued per FU type, per thread (Count)
system.cpu1.statIssuedInstType_0::FloatMisc            0      0.00%     80.64% # Number of instructions issued per FU type, per thread (Count)
system.cpu1.statIssuedInstType_0::FloatSqrt            0      0.00%     80.64% # Number of instructions issued per FU type, per thread (Count)
system.cpu1.statIssuedInstType_0::SimdAdd          962      0.00%     80.64% # Number of instructions issued per FU type, per thread (Count)
system.cpu1.statIssuedInstType_0::SimdAddAcc            0      0.00%     80.64% # Number of instructions issued per FU type, per thread (Count)
system.cpu1.statIssuedInstType_0::SimdAlu       363444      0.38%     81.02% # Number of instructions issued per FU type, per thread (Count)
system.cpu1.statIssuedInstType_0::SimdCmp            6      0.00%     81.02% # Number of instructions issued per FU type, per thread (Count)
system.cpu1.statIssuedInstType_0::SimdCvt        87408      0.09%     81.11% # Number of instructions issued per FU type, per thread (Count)
system.cpu1.statIssuedInstType_0::SimdMisc       166390      0.17%     81.29% # Number of instructions issued per FU type, per thread (Count)
system.cpu1.statIssuedInstType_0::SimdMult            0      0.00%     81.29% # Number of instructions issued per FU type, per thread (Count)
system.cpu1.statIssuedInstType_0::SimdMultAcc            0      0.00%     81.29% # Number of instructions issued per FU type, per thread (Count)
system.cpu1.statIssuedInstType_0::SimdShift          783      0.00%     81.29% # Number of instructions issued per FU type, per thread (Count)
system.cpu1.statIssuedInstType_0::SimdShiftAcc            0      0.00%     81.29% # Number of instructions issued per FU type, per thread (Count)
system.cpu1.statIssuedInstType_0::SimdDiv            0      0.00%     81.29% # Number of instructions issued per FU type, per thread (Count)
system.cpu1.statIssuedInstType_0::SimdSqrt            0      0.00%     81.29% # Number of instructions issued per FU type, per thread (Count)
system.cpu1.statIssuedInstType_0::SimdFloatAdd        16208      0.02%     81.31% # Number of instructions issued per FU type, per thread (Count)
system.cpu1.statIssuedInstType_0::SimdFloatAlu            0      0.00%     81.31% # Number of instructions issued per FU type, per thread (Count)
system.cpu1.statIssuedInstType_0::SimdFloatCmp            0      0.00%     81.31% # Number of instructions issued per FU type, per thread (Count)
system.cpu1.statIssuedInstType_0::SimdFloatCvt            0      0.00%     81.31% # Number of instructions issued per FU type, per thread (Count)
system.cpu1.statIssuedInstType_0::SimdFloatDiv            0      0.00%     81.31% # Number of instructions issued per FU type, per thread (Count)
system.cpu1.statIssuedInstType_0::SimdFloatMisc            0      0.00%     81.31% # Number of instructions issued per FU type, per thread (Count)
system.cpu1.statIssuedInstType_0::SimdFloatMult            0      0.00%     81.31% # Number of instructions issued per FU type, per thread (Count)
system.cpu1.statIssuedInstType_0::SimdFloatMultAcc            0      0.00%     81.31% # Number of instructions issued per FU type, per thread (Count)
system.cpu1.statIssuedInstType_0::SimdFloatSqrt            0      0.00%     81.31% # Number of instructions issued per FU type, per thread (Count)
system.cpu1.statIssuedInstType_0::SimdReduceAdd            0      0.00%     81.31% # Number of instructions issued per FU type, per thread (Count)
system.cpu1.statIssuedInstType_0::SimdReduceAlu            0      0.00%     81.31% # Number of instructions issued per FU type, per thread (Count)
system.cpu1.statIssuedInstType_0::SimdReduceCmp            0      0.00%     81.31% # Number of instructions issued per FU type, per thread (Count)
system.cpu1.statIssuedInstType_0::SimdFloatReduceAdd            0      0.00%     81.31% # Number of instructions issued per FU type, per thread (Count)
system.cpu1.statIssuedInstType_0::SimdFloatReduceCmp            0      0.00%     81.31% # Number of instructions issued per FU type, per thread (Count)
system.cpu1.statIssuedInstType_0::SimdAes            0      0.00%     81.31% # Number of instructions issued per FU type, per thread (Count)
system.cpu1.statIssuedInstType_0::SimdAesMix            0      0.00%     81.31% # Number of instructions issued per FU type, per thread (Count)
system.cpu1.statIssuedInstType_0::SimdSha1Hash            0      0.00%     81.31% # Number of instructions issued per FU type, per thread (Count)
system.cpu1.statIssuedInstType_0::SimdSha1Hash2            0      0.00%     81.31% # Number of instructions issued per FU type, per thread (Count)
system.cpu1.statIssuedInstType_0::SimdSha256Hash            0      0.00%     81.31% # Number of instructions issued per FU type, per thread (Count)
system.cpu1.statIssuedInstType_0::SimdSha256Hash2            0      0.00%     81.31% # Number of instructions issued per FU type, per thread (Count)
system.cpu1.statIssuedInstType_0::SimdShaSigma2            0      0.00%     81.31% # Number of instructions issued per FU type, per thread (Count)
system.cpu1.statIssuedInstType_0::SimdShaSigma3            0      0.00%     81.31% # Number of instructions issued per FU type, per thread (Count)
system.cpu1.statIssuedInstType_0::SimdPredAlu            0      0.00%     81.31% # Number of instructions issued per FU type, per thread (Count)
system.cpu1.statIssuedInstType_0::MemRead     11535988     12.10%     93.40% # Number of instructions issued per FU type, per thread (Count)
system.cpu1.statIssuedInstType_0::MemWrite      5933433      6.22%     99.62% # Number of instructions issued per FU type, per thread (Count)
system.cpu1.statIssuedInstType_0::FloatMemRead       196386      0.21%     99.83% # Number of instructions issued per FU type, per thread (Count)
system.cpu1.statIssuedInstType_0::FloatMemWrite       161256      0.17%    100.00% # Number of instructions issued per FU type, per thread (Count)
system.cpu1.statIssuedInstType_0::IprAccess            0      0.00%    100.00% # Number of instructions issued per FU type, per thread (Count)
system.cpu1.statIssuedInstType_0::InstPrefetch            0      0.00%    100.00% # Number of instructions issued per FU type, per thread (Count)
system.cpu1.statIssuedInstType_0::total      95358867                       # Number of instructions issued per FU type, per thread (Count)
system.cpu1.issueRate                        3.165722                       # Inst issue rate ((Count/Cycle))
system.cpu1.fuBusy                            1303295                       # FU busy when requested (Count)
system.cpu1.fuBusyRate                       0.013667                       # FU busy rate (busy events/executed inst) ((Count/Count))
system.cpu1.intInstQueueReads               218903657                       # Number of integer instruction queue reads (Count)
system.cpu1.intInstQueueWrites              100536148                       # Number of integer instruction queue writes (Count)
system.cpu1.intInstQueueWakeupAccesses       93688948                       # Number of integer instruction queue wakeup accesses (Count)
system.cpu1.fpInstQueueReads                  2511239                       # Number of floating instruction queue reads (Count)
system.cpu1.fpInstQueueWrites                 1264011                       # Number of floating instruction queue writes (Count)
system.cpu1.fpInstQueueWakeupAccesses         1216770                       # Number of floating instruction queue wakeup accesses (Count)
system.cpu1.vecInstQueueReads                       0                       # Number of vector instruction queue reads (Count)
system.cpu1.vecInstQueueWrites                      0                       # Number of vector instruction queue writes (Count)
system.cpu1.vecInstQueueWakeupAccesses              0                       # Number of vector instruction queue wakeup accesses (Count)
system.cpu1.intAluAccesses                   94584802                       # Number of integer alu accesses (Count)
system.cpu1.fpAluAccesses                     1282273                       # Number of floating point alu accesses (Count)
system.cpu1.vecAluAccesses                          0                       # Number of vector alu accesses (Count)
system.cpu1.numInsts                         95005270                       # Number of executed instructions (Count)
system.cpu1.numLoadInsts                     11674344                       # Number of load instructions executed (Count)
system.cpu1.numSquashedInsts                   353589                       # Number of squashed instructions skipped in execute (Count)
system.cpu1.numSwp                                  0                       # Number of swp insts executed (Count)
system.cpu1.numNop                                  0                       # Number of nop insts executed (Count)
system.cpu1.numRefs                          17748979                       # Number of memory reference insts executed (Count)
system.cpu1.numBranches                      10729941                       # Number of branches executed (Count)
system.cpu1.numStoreInsts                     6074635                       # Number of stores executed (Count)
[...]
system.ruby.network.ext_out_link_utilization      1907933                       (Unspecified)
system.ruby.network.flit_network_latency | 52872078500                       | 88397041000                       |  6771340000                       (Unspecified)
system.ruby.network.flit_queueing_latency |   820882500                       |   710059500                       |    48786500                       (Unspecified)
system.ruby.network.flits_injected       |      546244     28.63%     28.63% |     1264122     66.26%     94.89% |       97573      5.11%    100.00% (Unspecified)
system.ruby.network.flits_injected::total      1907939                       (Unspecified)
system.ruby.network.flits_received       |      546238     28.63%     28.63% |     1264122     66.26%     94.89% |       97573      5.11%    100.00% (Unspecified)
system.ruby.network.flits_received::total      1907933                       (Unspecified)
system.ruby.network.int_link_utilization      4608735                       (Unspecified)
system.ruby.network.packet_network_latency | 28004642500                       | 27795915000                       |  6771340000                       (Unspecified)
system.ruby.network.packet_queueing_latency |   553288500                       |   178485500                       |    48786500                       (Unspecified)
system.ruby.network.packets_injected     |      324360     43.46%     43.46% |      324358     43.46%     86.93% |       97573     13.07%    100.00% (Unspecified)
system.ruby.network.packets_injected::total       746291                       (Unspecified)
system.ruby.network.packets_received     |      324358     43.46%     43.46% |      324358     43.46%     86.93% |       97573     13.07%    100.00% (Unspecified)
system.ruby.network.packets_received::total       746289                       (Unspecified)
system.ruby.network.routers00.Var_1                 0                       (Unspecified)
system.ruby.network.routers00.Var_2               408                       (Unspecified)
system.ruby.network.routers00.Var_3              1047                       (Unspecified)
system.ruby.network.routers00.all_counts        19520                       (Unspecified)
system.ruby.network.routers00.buffer_reads       292263                       (Unspecified)
system.ruby.network.routers00.buffer_writes       292263                       (Unspecified)
system.ruby.network.routers00.crossbar_activity       292263                       (Unspecified)
system.ruby.network.routers00.detour_counts          519                       (Unspecified)
system.ruby.network.routers00.regular_var            0                       (Unspecified)
system.ruby.network.routers00.risk_counts         1048                       (Unspecified)
system.ruby.network.routers00.sw_input_arbiter_activity       293449                       (Unspecified)
system.ruby.network.routers00.sw_output_arbiter_activity       292263                       (Unspecified)
system.ruby.network.routers01.Var_1                 0                       (Unspecified)
system.ruby.network.routers01.Var_2               400                       (Unspecified)
system.ruby.network.routers01.Var_3              1824                       (Unspecified)
system.ruby.network.routers01.all_counts        19549                       (Unspecified)
system.ruby.network.routers01.buffer_reads       421909                       (Unspecified)
system.ruby.network.routers01.buffer_writes       421909                       (Unspecified)
system.ruby.network.routers01.crossbar_activity       421909                       (Unspecified)
system.ruby.network.routers01.detour_counts          912                       (Unspecified)
system.ruby.network.routers01.regular_var            0                       (Unspecified)
system.ruby.network.routers01.risk_counts         1827                       (Unspecified)
system.ruby.network.routers01.sw_input_arbiter_activity       424893                       (Unspecified)
system.ruby.network.routers01.sw_output_arbiter_activity       421909                       (Unspecified)
system.ruby.network.routers02.Var_1                 0                       (Unspecified)
system.ruby.network.routers02.Var_2               420                       (Unspecified)
system.ruby.network.routers02.Var_3              1986                       (Unspecified)
system.ruby.network.routers02.all_counts        19534                       (Unspecified)
system.ruby.network.routers02.buffer_reads       416683                       (Unspecified)
system.ruby.network.routers02.buffer_writes       416683                       (Unspecified)
system.ruby.network.routers02.crossbar_activity       416683                       (Unspecified)
system.ruby.network.routers02.detour_counts         1003                       (Unspecified)
system.ruby.network.routers02.regular_var            0                       (Unspecified)
system.ruby.network.routers02.risk_counts         1987                       (Unspecified)
system.ruby.network.routers02.sw_input_arbiter_activity       419365                       (Unspecified)
system.ruby.network.routers02.sw_output_arbiter_activity       416683                       (Unspecified)
system.ruby.network.routers03.Var_1                 0                       (Unspecified)
system.ruby.network.routers03.Var_2               401                       (Unspecified)
system.ruby.network.routers03.Var_3              1169                       (Unspecified)
system.ruby.network.routers03.all_counts        19493                       (Unspecified)
system.ruby.network.routers03.buffer_reads       298041                       (Unspecified)
system.ruby.network.routers03.buffer_writes       298041                       (Unspecified)
system.ruby.network.routers03.crossbar_activity       298041                       (Unspecified)
system.ruby.network.routers03.detour_counts          567                       (Unspecified)
system.ruby.network.routers03.regular_var            0                       (Unspecified)
system.ruby.network.routers03.risk_counts         1172                       (Unspecified)
system.ruby.network.routers03.sw_input_arbiter_activity       299249                       (Unspecified)
system.ruby.network.routers03.sw_output_arbiter_activity       298041                       (Unspecified)
system.ruby.network.routers04.Var_1                 0                       (Unspecified)
system.ruby.network.routers04.Var_2               420                       (Unspecified)
system.ruby.network.routers04.Var_3              3219                       (Unspecified)
system.ruby.network.routers04.all_counts        19502                       (Unspecified)
system.ruby.network.routers04.buffer_reads       397043                       (Unspecified)
system.ruby.network.routers04.buffer_writes       397043                       (Unspecified)
system.ruby.network.routers04.crossbar_activity       397043                       (Unspecified)
system.ruby.network.routers04.detour_counts         1655                       (Unspecified)
system.ruby.network.routers04.regular_var            0                       (Unspecified)
system.ruby.network.routers04.risk_counts         3219                       (Unspecified)
system.ruby.network.routers04.sw_input_arbiter_activity       399308                       (Unspecified)
system.ruby.network.routers04.sw_output_arbiter_activity       397043                       (Unspecified)
system.ruby.network.routers05.Var_1                 0                       (Unspecified)
system.ruby.network.routers05.Var_2               418                       (Unspecified)
system.ruby.network.routers05.Var_3              3953                       (Unspecified)
system.ruby.network.routers05.all_counts        19569                       (Unspecified)
system.ruby.network.routers05.buffer_reads       524418                       (Unspecified)
system.ruby.network.routers05.buffer_writes       524418                       (Unspecified)
system.ruby.network.routers05.crossbar_activity       524418                       (Unspecified)
system.ruby.network.routers05.detour_counts         1984                       (Unspecified)
system.ruby.network.routers05.regular_var            0                       (Unspecified)
system.ruby.network.routers05.risk_counts         3954                       (Unspecified)
system.ruby.network.routers05.sw_input_arbiter_activity       528467                       (Unspecified)
system.ruby.network.routers05.sw_output_arbiter_activity       524418                       (Unspecified)
system.ruby.network.routers06.Var_1                 0                       (Unspecified)
system.ruby.network.routers06.Var_2               389                       (Unspecified)
system.ruby.network.routers06.Var_3              3724                       (Unspecified)
system.ruby.network.routers06.all_counts        19550                       (Unspecified)
system.ruby.network.routers06.buffer_reads       528167                       (Unspecified)
system.ruby.network.routers06.buffer_writes       528167                       (Unspecified)
system.ruby.network.routers06.crossbar_activity       528167                       (Unspecified)
system.ruby.network.routers06.detour_counts         1867                       (Unspecified)
system.ruby.network.routers06.regular_var            0                       (Unspecified)
system.ruby.network.routers06.risk_counts         3725                       (Unspecified)
system.ruby.network.routers06.sw_input_arbiter_activity       532290                       (Unspecified)
system.ruby.network.routers06.sw_output_arbiter_activity       528167                       (Unspecified)
system.ruby.network.routers07.Var_1                 0                       (Unspecified)
system.ruby.network.routers07.Var_2               428                       (Unspecified)
system.ruby.network.routers07.Var_3              3381                       (Unspecified)
system.ruby.network.routers07.all_counts        19482                       (Unspecified)
system.ruby.network.routers07.buffer_reads       400333                       (Unspecified)
system.ruby.network.routers07.buffer_writes       400333                       (Unspecified)
system.ruby.network.routers07.crossbar_activity       400333                       (Unspecified)
system.ruby.network.routers07.detour_counts         1691                       (Unspecified)
system.ruby.network.routers07.regular_var            0                       (Unspecified)
system.ruby.network.routers07.risk_counts         3382                       (Unspecified)
system.ruby.network.routers07.sw_input_arbiter_activity       402619                       (Unspecified)
system.ruby.network.routers07.sw_output_arbiter_activity       400333                       (Unspecified)
system.ruby.network.routers08.Var_1                 0                       (Unspecified)
system.ruby.network.routers08.Var_2               418                       (Unspecified)
system.ruby.network.routers08.Var_3              3148                       (Unspecified)
system.ruby.network.routers08.all_counts        19497                       (Unspecified)
system.ruby.network.routers08.buffer_reads       399400                       (Unspecified)
system.ruby.network.routers08.buffer_writes       399400                       (Unspecified)
system.ruby.network.routers08.crossbar_activity       399400                       (Unspecified)
system.ruby.network.routers08.detour_counts         1545                       (Unspecified)
system.ruby.network.routers08.regular_var            0                       (Unspecified)
system.ruby.network.routers08.risk_counts         3148                       (Unspecified)
system.ruby.network.routers08.sw_input_arbiter_activity       402023                       (Unspecified)
system.ruby.network.routers08.sw_output_arbiter_activity       399400                       (Unspecified)
system.ruby.network.routers09.Var_1                 2                       (Unspecified)
system.ruby.network.routers09.Var_2               380                       (Unspecified)
system.ruby.network.routers09.Var_3              3760                       (Unspecified)
system.ruby.network.routers09.all_counts        19533                       (Unspecified)
system.ruby.network.routers09.buffer_reads       531301                       (Unspecified)
system.ruby.network.routers09.buffer_writes       531301                       (Unspecified)
system.ruby.network.routers09.crossbar_activity       531301                       (Unspecified)
system.ruby.network.routers09.detour_counts         1881                       (Unspecified)
system.ruby.network.routers09.regular_var            0                       (Unspecified)
system.ruby.network.routers09.risk_counts         3761                       (Unspecified)
system.ruby.network.routers09.sw_input_arbiter_activity       535546                       (Unspecified)
system.ruby.network.routers09.sw_output_arbiter_activity       531301                       (Unspecified)
system.ruby.network.routers10.Var_1                 0                       (Unspecified)
system.ruby.network.routers10.Var_2               418                       (Unspecified)
system.ruby.network.routers10.Var_3              3818                       (Unspecified)
system.ruby.network.routers10.all_counts        19540                       (Unspecified)
system.ruby.network.routers10.buffer_reads       524209                       (Unspecified)
system.ruby.network.routers10.buffer_writes       524209                       (Unspecified)
system.ruby.network.routers10.crossbar_activity       524209                       (Unspecified)
system.ruby.network.routers10.detour_counts         1922                       (Unspecified)
system.ruby.network.routers10.regular_var            0                       (Unspecified)
system.ruby.network.routers10.risk_counts         3820                       (Unspecified)
system.ruby.network.routers10.sw_input_arbiter_activity       528296                       (Unspecified)
system.ruby.network.routers10.sw_output_arbiter_activity       524209                       (Unspecified)
system.ruby.network.routers11.Var_1                 0                       (Unspecified)
system.ruby.network.routers11.Var_2               426                       (Unspecified)
system.ruby.network.routers11.Var_3              3317                       (Unspecified)
system.ruby.network.routers11.all_counts        19515                       (Unspecified)
system.ruby.network.routers11.buffer_reads       400155                       (Unspecified)
system.ruby.network.routers11.buffer_writes       400155                       (Unspecified)
system.ruby.network.routers11.crossbar_activity       400155                       (Unspecified)
system.ruby.network.routers11.detour_counts         1681                       (Unspecified)
system.ruby.network.routers11.regular_var            0                       (Unspecified)
system.ruby.network.routers11.risk_counts         3321                       (Unspecified)
system.ruby.network.routers11.sw_input_arbiter_activity       402430                       (Unspecified)
system.ruby.network.routers11.sw_output_arbiter_activity       400155                       (Unspecified)
system.ruby.network.routers12.Var_1                 0                       (Unspecified)
system.ruby.network.routers12.Var_2               419                       (Unspecified)
system.ruby.network.routers12.Var_3              1108                       (Unspecified)
system.ruby.network.routers12.all_counts        19418                       (Unspecified)
system.ruby.network.routers12.buffer_reads       286502                       (Unspecified)
system.ruby.network.routers12.buffer_writes       286502                       (Unspecified)
system.ruby.network.routers12.crossbar_activity       286502                       (Unspecified)
system.ruby.network.routers12.detour_counts          549                       (Unspecified)
system.ruby.network.routers12.regular_var            0                       (Unspecified)
system.ruby.network.routers12.risk_counts         1109                       (Unspecified)
system.ruby.network.routers12.sw_input_arbiter_activity       287668                       (Unspecified)
system.ruby.network.routers12.sw_output_arbiter_activity       286502                       (Unspecified)
system.ruby.network.routers13.Var_1                 0                       (Unspecified)
system.ruby.network.routers13.Var_2               410                       (Unspecified)
system.ruby.network.routers13.Var_3              1913                       (Unspecified)
system.ruby.network.routers13.all_counts        19488                       (Unspecified)
system.ruby.network.routers13.buffer_reads       407373                       (Unspecified)
system.ruby.network.routers13.buffer_writes       407373                       (Unspecified)
system.ruby.network.routers13.crossbar_activity       407373                       (Unspecified)
system.ruby.network.routers13.detour_counts          973                       (Unspecified)
system.ruby.network.routers13.regular_var            0                       (Unspecified)
system.ruby.network.routers13.risk_counts         1914                       (Unspecified)
system.ruby.network.routers13.sw_input_arbiter_activity       410240                       (Unspecified)
system.ruby.network.routers13.sw_output_arbiter_activity       407373                       (Unspecified)
system.ruby.network.routers14.Var_1                 0                       (Unspecified)
system.ruby.network.routers14.Var_2               428                       (Unspecified)
system.ruby.network.routers14.Var_3              2004                       (Unspecified)
system.ruby.network.routers14.all_counts        19483                       (Unspecified)
system.ruby.network.routers14.buffer_reads       402352                       (Unspecified)
system.ruby.network.routers14.buffer_writes       402352                       (Unspecified)
system.ruby.network.routers14.crossbar_activity       402352                       (Unspecified)
system.ruby.network.routers14.detour_counts         1012                       (Unspecified)
system.ruby.network.routers14.regular_var            0                       (Unspecified)
system.ruby.network.routers14.risk_counts         2004                       (Unspecified)
system.ruby.network.routers14.sw_input_arbiter_activity       404883                       (Unspecified)
system.ruby.network.routers14.sw_output_arbiter_activity       402352                       (Unspecified)
system.ruby.network.routers15.Var_1                 1                       (Unspecified)
system.ruby.network.routers15.Var_2               415                       (Unspecified)
system.ruby.network.routers15.Var_3              1257                       (Unspecified)
system.ruby.network.routers15.all_counts        19419                       (Unspecified)
system.ruby.network.routers15.buffer_reads       286520                       (Unspecified)
system.ruby.network.routers15.buffer_writes       286520                       (Unspecified)
system.ruby.network.routers15.crossbar_activity       286520                       (Unspecified)
system.ruby.network.routers15.detour_counts          626                       (Unspecified)
system.ruby.network.routers15.regular_var            0                       (Unspecified)
system.ruby.network.routers15.risk_counts         1259                       (Unspecified)
system.ruby.network.routers15.sw_input_arbiter_activity       287700                       (Unspecified)
system.ruby.network.routers15.sw_output_arbiter_activity       286520                       (Unspecified)

---------- End Simulation Statistics   ----------
