
---------- Begin Simulation Statistics ----------
simSeconds                                   0.073666                       # Number of seconds simulated (Second)
simTicks                                  73666197000                       # Number of ticks simulated (Tick)
finalTick                                 73666197000                       # Number of ticks from beginning of simulation (restored from checkpoints and never reset) (Tick)
simFreq                                  1000000000000                       # The number of ticks per simulated second ((Tick/Second))
hostSeconds                                   4988.61                       # Real time elapsed on the host (Second)
hostTickRate                                 14766872                       # The number of ticks simulated per host second (ticks/s) ((Tick/Second))
hostMemory                                   42098516                       # Number of bytes of host memory used (Byte)
simInsts                                    433370031                       # Number of instructions simulated (Count)
simOps                                      833215812                       # Number of ops (including micro ops) simulated (Count)
hostInstRate                                    86872                       # Simulator instruction rate (inst/s) ((Count/Second))
hostOpRate                                     167024                       # Simulator op (including micro ops) rate (op/s) ((Count/Second))
system.clk_domain.clock                          1000                       # Clock period in ticks (Tick)
system.cpu0.numCycles                       147332395                       # Number of cpu cycles simulated (Cycle)
system.cpu0.numWorkItemsStarted                     0                       # Number of work items this cpu started (Count)
system.cpu0.numWorkItemsCompleted                   0                       # Number of work items this cpu completed (Count)
system.cpu0.instsAdded                       52260321                       # Number of instructions added to the IQ (excludes non-spec) (Count)
system.cpu0.nonSpecInstsAdded                    1221                       # Number of non-speculative instructions added to the IQ (Count)
system.cpu0.instsIssued                      51873677                       # Number of instructions issued (Count)
system.cpu0.squashedInstsIssued                  1889                       # Number of squashed instructions issued (Count)
system.cpu0.squashedInstsExamined             1440054                       # Number of squashed instructions iterated over during squash; mainly for profiling (Count)
system.cpu0.squashedOperandsExamined          2282725                       # Number of squashed operands that are examined and possibly removed from graph (Count)
system.cpu0.squashedNonSpecRemoved                104                       # Number of squashed non-spec instructions that were removed (Count)
system.cpu0.numIssuedDist::samples          146034806                       # Number of insts issued each cycle (Count)
system.cpu0.numIssuedDist::mean              0.355214                       # Number of insts issued each cycle (Count)
system.cpu0.numIssuedDist::stdev             1.104007                       # Number of insts issued each cycle (Count)
system.cpu0.numIssuedDist::underflows               0      0.00%      0.00% # Number of insts issued each cycle (Count)
system.cpu0.numIssuedDist::0                128965545     88.31%     88.31% # Number of insts issued each cycle (Count)
system.cpu0.numIssuedDist::1                  2800721      1.92%     90.23% # Number of insts issued each cycle (Count)
system.cpu0.numIssuedDist::2                  4246833      2.91%     93.14% # Number of insts issued each cycle (Count)
system.cpu0.numIssuedDist::3                  3856644      2.64%     95.78% # Number of insts issued each cycle (Count)
system.cpu0.numIssuedDist::4                  3353109      2.30%     98.07% # Number of insts issued each cycle (Count)
system.cpu0.numIssuedDist::5                  1702530      1.17%     99.24% # Number of insts issued each cycle (Count)
system.cpu0.numIssuedDist::6                   785452      0.54%     99.78% # Number of insts issued each cycle (Count)
system.cpu0.numIssuedDist::7                   220216      0.15%     99.93% # Number of insts issued each cycle (Count)
system.cpu0.numIssuedDist::8                   103756      0.07%    100.00% # Number of insts issued each cycle (Count)
system.cpu0.numIssuedDist::overflows                0      0.00%    100.00% # Number of insts issued each cycle (Count)
system.cpu0.numIssuedDist::min_value                0                       # Number of insts issued each cycle (Count)
system.cpu0.numIssuedDist::max_value                8                       # Number of insts issued each cycle (Count)
system.cpu0.numIssuedDist::total            146034806                       # Number of insts issued each cycle (Count)
system.cpu0.statFuBusy::No_OpClass                  0      0.00%      0.00% # attempts to use FU when none available (Count)
system.cpu0.statFuBusy::IntAlu                  45605     29.37%     29.37% # attempts to use FU when none available (Count)
system.cpu0.statFuBusy::IntMult                     0      0.00%     29.37% # attempts to use FU when none available (Count)
system.cpu0.statFuBusy::IntDiv                      0      0.00%     29.37% # attempts to use FU when none available (Count)
system.cpu0.statFuBusy::FloatAdd                    0      0.00%     29.37% # attempts to use FU when none available (Count)
system.cpu0.statFuBusy::FloatCmp                    0      0.00%     29.37% # attempts to use FU when none available (Count)
system.cpu0.statFuBusy::FloatCvt                    0      0.00%     29.37% # attempts to use FU when none available (Count)
system.cpu0.statFuBusy::FloatMult                   0      0.00%     29.37% # attempts to use FU when none available (Count)
system.cpu0.statFuBusy::FloatMultAcc                0      0.00%     29.37% # attempts to use FU when none available (Count)
system.cpu0.statFuBusy::FloatDiv                    0      0.00%     29.37% # attempts to use FU when none available (Count)
system.cpu0.statFuBusy::FloatMisc                   0      0.00%     29.37% # attempts to use FU when none available (Count)
system.cpu0.statFuBusy::FloatSqrt                   0      0.00%     29.37% # attempts to use FU when none available (Count)
system.cpu0.statFuBusy::SimdAdd                    12      0.01%     29.38% # attempts to use FU when none available (Count)
system.cpu0.statFuBusy::SimdAddAcc                  0      0.00%     29.38% # attempts to use FU when none available (Count)
system.cpu0.statFuBusy::SimdAlu                   117      0.08%     29.45% # attempts to use FU when none available (Count)
system.cpu0.statFuBusy::SimdCmp                     0      0.00%     29.45% # attempts to use FU when none available (Count)
system.cpu0.statFuBusy::SimdCvt                   229      0.15%     29.60% # attempts to use FU when none available (Count)
system.cpu0.statFuBusy::SimdMisc                   23      0.01%     29.62% # attempts to use FU when none available (Count)
system.cpu0.statFuBusy::SimdMult                    0      0.00%     29.62% # attempts to use FU when none available (Count)
system.cpu0.statFuBusy::SimdMultAcc                 0      0.00%     29.62% # attempts to use FU when none available (Count)
system.cpu0.statFuBusy::SimdShift                 177      0.11%     29.73% # attempts to use FU when none available (Count)
system.cpu0.statFuBusy::SimdShiftAcc                0      0.00%     29.73% # attempts to use FU when none available (Count)
system.cpu0.statFuBusy::SimdDiv                     0      0.00%     29.73% # attempts to use FU when none available (Count)
system.cpu0.statFuBusy::SimdSqrt                    0      0.00%     29.73% # attempts to use FU when none available (Count)
system.cpu0.statFuBusy::SimdFloatAdd                0      0.00%     29.73% # attempts to use FU when none available (Count)
system.cpu0.statFuBusy::SimdFloatAlu                0      0.00%     29.73% # attempts to use FU when none available (Count)
system.cpu0.statFuBusy::SimdFloatCmp                0      0.00%     29.73% # attempts to use FU when none available (Count)
system.cpu0.statFuBusy::SimdFloatCvt                0      0.00%     29.73% # attempts to use FU when none available (Count)
system.cpu0.statFuBusy::SimdFloatDiv                0      0.00%     29.73% # attempts to use FU when none available (Count)
system.cpu0.statFuBusy::SimdFloatMisc               0      0.00%     29.73% # attempts to use FU when none available (Count)
system.cpu0.statFuBusy::SimdFloatMult               0      0.00%     29.73% # attempts to use FU when none available (Count)
system.cpu0.statFuBusy::SimdFloatMultAcc            0      0.00%     29.73% # attempts to use FU when none available (Count)
system.cpu0.statFuBusy::SimdFloatSqrt               0      0.00%     29.73% # attempts to use FU when none available (Count)
system.cpu0.statFuBusy::SimdReduceAdd               0      0.00%     29.73% # attempts to use FU when none available (Count)
system.cpu0.statFuBusy::SimdReduceAlu               0      0.00%     29.73% # attempts to use FU when none available (Count)
system.cpu0.statFuBusy::SimdReduceCmp               0      0.00%     29.73% # attempts to use FU when none available (Count)
system.cpu0.statFuBusy::SimdFloatReduceAdd            0      0.00%     29.73% # attempts to use FU when none available (Count)
system.cpu0.statFuBusy::SimdFloatReduceCmp            0      0.00%     29.73% # attempts to use FU when none available (Count)
system.cpu0.statFuBusy::SimdAes                     0      0.00%     29.73% # attempts to use FU when none available (Count)
system.cpu0.statFuBusy::SimdAesMix                  0      0.00%     29.73% # attempts to use FU when none available (Count)
system.cpu0.statFuBusy::SimdSha1Hash                0      0.00%     29.73% # attempts to use FU when none available (Count)
system.cpu0.statFuBusy::SimdSha1Hash2               0      0.00%     29.73% # attempts to use FU when none available (Count)
system.cpu0.statFuBusy::SimdSha256Hash              0      0.00%     29.73% # attempts to use FU when none available (Count)
system.cpu0.statFuBusy::SimdSha256Hash2             0      0.00%     29.73% # attempts to use FU when none available (Count)
system.cpu0.statFuBusy::SimdShaSigma2               0      0.00%     29.73% # attempts to use FU when none available (Count)
system.cpu0.statFuBusy::SimdShaSigma3               0      0.00%     29.73% # attempts to use FU when none available (Count)
system.cpu0.statFuBusy::SimdPredAlu                 0      0.00%     29.73% # attempts to use FU when none available (Count)
system.cpu0.statFuBusy::MemRead                 97702     62.92%     92.65% # attempts to use FU when none available (Count)
system.cpu0.statFuBusy::MemWrite                10424      6.71%     99.36% # attempts to use FU when none available (Count)
system.cpu0.statFuBusy::FloatMemRead              681      0.44%     99.80% # attempts to use FU when none available (Count)
system.cpu0.statFuBusy::FloatMemWrite             306      0.20%    100.00% # attempts to use FU when none available (Count)
system.cpu0.statFuBusy::IprAccess                   0      0.00%    100.00% # attempts to use FU when none available (Count)
system.cpu0.statFuBusy::InstPrefetch                0      0.00%    100.00% # attempts to use FU when none available (Count)
system.cpu0.statIssuedInstType_0::No_OpClass      2186649      4.22%      4.22% # Number of instructions issued per FU type, per thread (Count)
system.cpu0.statIssuedInstType_0::IntAlu     33802052     65.16%     69.38% # Number of instructions issued per FU type, per thread (Count)
system.cpu0.statIssuedInstType_0::IntMult          232      0.00%     69.38% # Number of instructions issued per FU type, per thread (Count)
system.cpu0.statIssuedInstType_0::IntDiv        39676      0.08%     69.45% # Number of instructions issued per FU type, per thread (Count)
system.cpu0.statIssuedInstType_0::FloatAdd         9074      0.02%     69.47% # Number of instructions issued per FU type, per thread (Count)
system.cpu0.statIssuedInstType_0::FloatCmp            0      0.00%     69.47% # Number of instructions issued per FU type, per thread (Count)
system.cpu0.statIssuedInstType_0::FloatCvt         1591      0.00%     69.48% # Number of instructions issued per FU type, per thread (Count)
system.cpu0.statIssuedInstType_0::FloatMult            0      0.00%     69.48% # Number of instructions issued per FU type, per thread (Count)
system.cpu0.statIssuedInstType_0::FloatMultAcc            0      0.00%     69.48% # Number of instructions issued per FU type, per thread (Count)
system.cpu0.statIssuedInstType_0::FloatDiv            0      0.00%     69.48% # Number of instructions issued per FU type, per thread (Count)
system.cpu0.statIssuedInstType_0::FloatMisc            0      0.00%     69.48% # Number of instructions issued per FU type, per thread (Count)
system.cpu0.statIssuedInstType_0::FloatSqrt            0      0.00%     69.48% # Number of instructions issued per FU type, per thread (Count)
system.cpu0.statIssuedInstType_0::SimdAdd         7109      0.01%     69.49% # Number of instructions issued per FU type, per thread (Count)
system.cpu0.statIssuedInstType_0::SimdAddAcc            0      0.00%     69.49% # Number of instructions issued per FU type, per thread (Count)
system.cpu0.statIssuedInstType_0::SimdAlu        15363      0.03%     69.52% # Number of instructions issued per FU type, per thread (Count)
system.cpu0.statIssuedInstType_0::SimdCmp           12      0.00%     69.52% # Number of instructions issued per FU type, per thread (Count)
system.cpu0.statIssuedInstType_0::SimdCvt        15138      0.03%     69.55% # Number of instructions issued per FU type, per thread (Count)
system.cpu0.statIssuedInstType_0::SimdMisc        15268      0.03%     69.58% # Number of instructions issued per FU type, per thread (Count)
system.cpu0.statIssuedInstType_0::SimdMult            0      0.00%     69.58% # Number of instructions issued per FU type, per thread (Count)
system.cpu0.statIssuedInstType_0::SimdMultAcc            0      0.00%     69.58% # Number of instructions issued per FU type, per thread (Count)
system.cpu0.statIssuedInstType_0::SimdShift         2616      0.01%     69.58% # Number of instructions issued per FU type, per thread (Count)
system.cpu0.statIssuedInstType_0::SimdShiftAcc            0      0.00%     69.58% # Number of instructions issued per FU type, per thread (Count)
system.cpu0.statIssuedInstType_0::SimdDiv            0      0.00%     69.58% # Number of instructions issued per FU type, per thread (Count)
system.cpu0.statIssuedInstType_0::SimdSqrt            0      0.00%     69.58% # Number of instructions issued per FU type, per thread (Count)
system.cpu0.statIssuedInstType_0::SimdFloatAdd            0      0.00%     69.58% # Number of instructions issued per FU type, per thread (Count)
system.cpu0.statIssuedInstType_0::SimdFloatAlu            0      0.00%     69.58% # Number of instructions issued per FU type, per thread (Count)
system.cpu0.statIssuedInstType_0::SimdFloatCmp            0      0.00%     69.58% # Number of instructions issued per FU type, per thread (Count)
system.cpu0.statIssuedInstType_0::SimdFloatCvt            0      0.00%     69.58% # Number of instructions issued per FU type, per thread (Count)
system.cpu0.statIssuedInstType_0::SimdFloatDiv            0      0.00%     69.58% # Number of instructions issued per FU type, per thread (Count)
system.cpu0.statIssuedInstType_0::SimdFloatMisc            0      0.00%     69.58% # Number of instructions issued per FU type, per thread (Count)
system.cpu0.statIssuedInstType_0::SimdFloatMult            0      0.00%     69.58% # Number of instructions issued per FU type, per thread (Count)
system.cpu0.statIssuedInstType_0::SimdFloatMultAcc            0      0.00%     69.58% # Number of instructions issued per FU type, per thread (Count)
system.cpu0.statIssuedInstType_0::SimdFloatSqrt            0      0.00%     69.58% # Number of instructions issued per FU type, per thread (Count)
system.cpu0.statIssuedInstType_0::SimdReduceAdd            0      0.00%     69.58% # Number of instructions issued per FU type, per thread (Count)
system.cpu0.statIssuedInstType_0::SimdReduceAlu            0      0.00%     69.58% # Number of instructions issued per FU type, per thread (Count)
system.cpu0.statIssuedInstType_0::SimdReduceCmp            0      0.00%     69.58% # Number of instructions issued per FU type, per thread (Count)
system.cpu0.statIssuedInstType_0::SimdFloatReduceAdd            0      0.00%     69.58% # Number of instructions issued per FU type, per thread (Count)
system.cpu0.statIssuedInstType_0::SimdFloatReduceCmp            0      0.00%     69.58% # Number of instructions issued per FU type, per thread (Count)
system.cpu0.statIssuedInstType_0::SimdAes            0      0.00%     69.58% # Number of instructions issued per FU type, per thread (Count)
system.cpu0.statIssuedInstType_0::SimdAesMix            0      0.00%     69.58% # Number of instructions issued per FU type, per thread (Count)
system.cpu0.statIssuedInstType_0::SimdSha1Hash            0      0.00%     69.58% # Number of instructions issued per FU type, per thread (Count)
system.cpu0.statIssuedInstType_0::SimdSha1Hash2            0      0.00%     69.58% # Number of instructions issued per FU type, per thread (Count)
system.cpu0.statIssuedInstType_0::SimdSha256Hash            0      0.00%     69.58% # Number of instructions issued per FU type, per thread (Count)
system.cpu0.statIssuedInstType_0::SimdSha256Hash2            0      0.00%     69.58% # Number of instructions issued per FU type, per thread (Count)
system.cpu0.statIssuedInstType_0::SimdShaSigma2            0      0.00%     69.58% # Number of instructions issued per FU type, per thread (Count)
system.cpu0.statIssuedInstType_0::SimdShaSigma3            0      0.00%     69.58% # Number of instructions issued per FU type, per thread (Count)
system.cpu0.statIssuedInstType_0::SimdPredAlu            0      0.00%     69.58% # Number of instructions issued per FU type, per thread (Count)
system.cpu0.statIssuedInstType_0::MemRead      7997524     15.42%     85.00% # Number of instructions issued per FU type, per thread (Count)
system.cpu0.statIssuedInstType_0::MemWrite      7742171     14.93%     99.92% # Number of instructions issued per FU type, per thread (Count)
system.cpu0.statIssuedInstType_0::FloatMemRead        23064      0.04%     99.97% # Number of instructions issued per FU type, per thread (Count)
system.cpu0.statIssuedInstType_0::FloatMemWrite        16138      0.03%    100.00% # Number of instructions issued per FU type, per thread (Count)
system.cpu0.statIssuedInstType_0::IprAccess            0      0.00%    100.00% # Number of instructions issued per FU type, per thread (Count)
system.cpu0.statIssuedInstType_0::InstPrefetch            0      0.00%    100.00% # Number of instructions issued per FU type, per thread (Count)
system.cpu0.statIssuedInstType_0::total      51873677                       # Number of instructions issued per FU type, per thread (Count)
system.cpu0.issueRate                        0.352086                       # Inst issue rate ((Count/Cycle))
system.cpu0.fuBusy                             155276                       # FU busy when requested (Count)
system.cpu0.fuBusyRate                       0.002993                       # FU busy rate (busy events/executed inst) ((Count/Count))
system.cpu0.intInstQueueReads               249717170                       # Number of integer instruction queue reads (Count)
system.cpu0.intInstQueueWrites               53543988                       # Number of integer instruction queue writes (Count)
system.cpu0.intInstQueueWakeupAccesses       51707417                       # Number of integer instruction queue wakeup accesses (Count)
system.cpu0.fpInstQueueReads                   222155                       # Number of floating instruction queue reads (Count)
system.cpu0.fpInstQueueWrites                  158225                       # Number of floating instruction queue writes (Count)
system.cpu0.fpInstQueueWakeupAccesses          106050                       # Number of floating instruction queue wakeup accesses (Count)
system.cpu0.vecInstQueueReads                       0                       # Number of vector instruction queue reads (Count)
system.cpu0.vecInstQueueWrites                      0                       # Number of vector instruction queue writes (Count)
system.cpu0.vecInstQueueWakeupAccesses              0                       # Number of vector instruction queue wakeup accesses (Count)
system.cpu0.intAluAccesses                   49730576                       # Number of integer alu accesses (Count)
system.cpu0.fpAluAccesses                      111728                       # Number of floating point alu accesses (Count)
system.cpu0.vecAluAccesses                          0                       # Number of vector alu accesses (Count)
system.cpu0.numInsts                         51848811                       # Number of executed instructions (Count)
system.cpu0.numLoadInsts                      8015435                       # Number of load instructions executed (Count)
system.cpu0.numSquashedInsts                    24866                       # Number of squashed instructions skipped in execute (Count)
system.cpu0.numSwp                                  0                       # Number of swp insts executed (Count)
system.cpu0.numNop                                  0                       # Number of nop insts executed (Count)
system.cpu0.numRefs                          15771337                       # Number of memory reference insts executed (Count)
system.cpu0.numBranches                       4703120                       # Number of branches executed (Count)
system.cpu0.numStoreInsts                     7755902                       # Number of stores executed (Count)
system.cpu0.numRate                          0.351917                       # Inst execution rate ((Count/Cycle))
system.cpu0.timesIdled                           2520                       # Number of times that the entire CPU went into an idle state and unscheduled itself (Count)
system.cpu0.idleCycles                        1297589                       # Total number of cycles that the CPU has spent unscheduled due to idling (Cycle)
system.cpu0.committedInsts                   26438819                       # Number of Instructions Simulated (Count)
system.cpu0.committedOps                     50821488                       # Number of Ops (including micro ops) Simulated (Count)
system.cpu0.cpi                              5.572579                       # CPI: Cycles Per Instruction ((Cycle/Count))
system.cpu0.totalCpi                         5.572579                       # CPI: Total CPI of All Threads ((Cycle/Count))
system.cpu0.ipc                              0.179450                       # IPC: Instructions Per Cycle ((Count/Cycle))
system.cpu0.totalIpc                         0.179450                       # IPC: Total IPC of All Threads ((Count/Cycle))
system.cpu0.intRegfileReads                  68053844                       # Number of integer regfile reads (Count)
system.cpu0.intRegfileWrites                 35061039                       # Number of integer regfile writes (Count)
system.cpu0.fpRegfileReads                     144636                       # Number of floating regfile reads (Count)
system.cpu0.fpRegfileWrites                     81576                       # Number of floating regfile writes (Count)
system.cpu0.ccRegfileReads                    2934085                       # number of cc regfile reads (Count)
system.cpu0.ccRegfileWrites                   5630439                       # number of cc regfile writes (Count)
system.cpu0.miscRegfileReads                 23165610                       # number of misc regfile reads (Count)
system.cpu0.miscRegfileWrites                     882                       # number of misc regfile writes (Count)
system.cpu0.MemDepUnit__0.insertedLoads       8053371                       # Number of loads inserted to the mem dependence unit. (Count)
system.cpu0.MemDepUnit__0.insertedStores      7773494                       # Number of stores inserted to the mem dependence unit. (Count)
system.cpu0.MemDepUnit__0.conflictingLoads      1865640                       # Number of conflicting loads. (Count)
system.cpu0.MemDepUnit__0.conflictingStores        71186                       # Number of conflicting stores. (Count)
system.cpu0.MemDepUnit__1.insertedLoads             0                       # Number of loads inserted to the mem dependence unit. (Count)
system.cpu0.MemDepUnit__1.insertedStores            0                       # Number of stores inserted to the mem dependence unit. (Count)
system.cpu0.MemDepUnit__1.conflictingLoads            0                       # Number of conflicting loads. (Count)
system.cpu0.MemDepUnit__1.conflictingStores            0                       # Number of conflicting stores. (Count)
system.cpu0.MemDepUnit__2.insertedLoads             0                       # Number of loads inserted to the mem dependence unit. (Count)
system.cpu0.MemDepUnit__2.insertedStores            0                       # Number of stores inserted to the mem dependence unit. (Count)
system.cpu0.MemDepUnit__2.conflictingLoads            0                       # Number of conflicting loads. (Count)
system.cpu0.MemDepUnit__2.conflictingStores            0                       # Number of conflicting stores. (Count)
system.cpu0.MemDepUnit__3.insertedLoads             0                       # Number of loads inserted to the mem dependence unit. (Count)
system.cpu0.MemDepUnit__3.insertedStores            0                       # Number of stores inserted to the mem dependence unit. (Count)
system.cpu0.MemDepUnit__3.conflictingLoads            0                       # Number of conflicting loads. (Count)
system.cpu0.MemDepUnit__3.conflictingStores            0                       # Number of conflicting stores. (Count)
system.cpu0.branchPred.lookups                4815131                       # Number of BP lookups (Count)
system.cpu0.branchPred.condPredicted           531800                       # Number of conditional branches predicted (Count)
system.cpu0.branchPred.condIncorrect            14160                       # Number of conditional branches incorrect (Count)
system.cpu0.branchPred.BTBLookups             2425546                       # Number of BTB lookups (Count)
system.cpu0.branchPred.BTBUpdates                7174                       # Number of BTB updates (Count)
system.cpu0.branchPred.BTBHits                2421822                       # Number of BTB hits (Count)
system.cpu0.branchPred.BTBHitRatio           0.998465                       # BTB Hit Ratio (Ratio)
system.cpu0.branchPred.RASUsed                2068368                       # Number of times the RAS was used to get a target. (Count)
system.cpu0.branchPred.RASIncorrect                15                       # Number of incorrect RAS predictions. (Count)
system.cpu0.branchPred.indirectLookups         125390                       # Number of indirect predictor lookups. (Count)
system.cpu0.branchPred.indirectHits            118633                       # Number of indirect target hits. (Count)
system.cpu0.branchPred.indirectMisses            6757                       # Number of indirect misses. (Count)
system.cpu0.branchPred.indirectMispredicted         1440                       # Number of mispredicted indirect branches. (Count)
system.cpu0.commit.commitSquashedInsts        1431211                       # The number of squashed insts skipped by commit (Count)
system.cpu0.commit.commitNonSpecStalls           1117                       # The number of times commit has been forced to stall to communicate backwards (Count)
system.cpu0.commit.branchMispredicts            14527                       # The number of times a branch was mispredicted (Count)
system.cpu0.commit.numCommittedDist::samples    145844872                       # Number of insts commited each cycle (Count)
system.cpu0.commit.numCommittedDist::mean     0.348463                       # Number of insts commited each cycle (Count)
system.cpu0.commit.numCommittedDist::stdev     1.309189                       # Number of insts commited each cycle (Count)
system.cpu0.commit.numCommittedDist::underflows            0      0.00%      0.00% # Number of insts commited each cycle (Count)
system.cpu0.commit.numCommittedDist::0      131758866     90.34%     90.34% # Number of insts commited each cycle (Count)
system.cpu0.commit.numCommittedDist::1        3024367      2.07%     92.42% # Number of insts commited each cycle (Count)
system.cpu0.commit.numCommittedDist::2        2919056      2.00%     94.42% # Number of insts commited each cycle (Count)
system.cpu0.commit.numCommittedDist::3        3287596      2.25%     96.67% # Number of insts commited each cycle (Count)
system.cpu0.commit.numCommittedDist::4         606583      0.42%     97.09% # Number of insts commited each cycle (Count)
system.cpu0.commit.numCommittedDist::5         986364      0.68%     97.76% # Number of insts commited each cycle (Count)
system.cpu0.commit.numCommittedDist::6         316862      0.22%     97.98% # Number of insts commited each cycle (Count)
system.cpu0.commit.numCommittedDist::7         724527      0.50%     98.48% # Number of insts commited each cycle (Count)
system.cpu0.commit.numCommittedDist::8        2220651      1.52%    100.00% # Number of insts commited each cycle (Count)
system.cpu0.commit.numCommittedDist::overflows            0      0.00%    100.00% # Number of insts commited each cycle (Count)
system.cpu0.commit.numCommittedDist::min_value            0                       # Number of insts commited each cycle (Count)
system.cpu0.commit.numCommittedDist::max_value            8                       # Number of insts commited each cycle (Count)
system.cpu0.commit.numCommittedDist::total    145844872                       # Number of insts commited each cycle (Count)
system.cpu0.commit.instsCommitted            26438819                       # Number of instructions committed (Count)
system.cpu0.commit.opsCommitted              50821488                       # Number of ops (including micro ops) committed (Count)
system.cpu0.commit.memRefs                   15494966                       # Number of memory references committed (Count)
system.cpu0.commit.loads                      7851694                       # Number of loads committed (Count)
system.cpu0.commit.amos                             0                       # Number of atomic instructions committed (Count)
system.cpu0.commit.membars                        154                       # Number of memory barriers committed (Count)
system.cpu0.commit.branches                   4635400                       # Number of branches committed (Count)
system.cpu0.commit.vectorInstructions               0                       # Number of committed Vector instructions. (Count)
system.cpu0.commit.floating                     91727                       # Number of committed floating point instructions. (Count)
system.cpu0.commit.integer                   46922509                       # Number of committed integer instructions. (Count)
system.cpu0.commit.functionCalls              2038575                       # Number of function calls committed. (Count)
system.cpu0.commit.committedInstType_0::No_OpClass      2154096      4.24%      4.24% # Class of committed instruction (Count)
system.cpu0.commit.committedInstType_0::IntAlu     33079562     65.09%     69.33% # Class of committed instruction (Count)
system.cpu0.commit.committedInstType_0::IntMult          206      0.00%     69.33% # Class of committed instruction (Count)
system.cpu0.commit.committedInstType_0::IntDiv        37175      0.07%     69.40% # Class of committed instruction (Count)
system.cpu0.commit.committedInstType_0::FloatAdd         7594      0.01%     69.42% # Class of committed instruction (Count)
system.cpu0.commit.committedInstType_0::FloatCmp            0      0.00%     69.42% # Class of committed instruction (Count)
system.cpu0.commit.committedInstType_0::FloatCvt         1568      0.00%     69.42% # Class of committed instruction (Count)
system.cpu0.commit.committedInstType_0::FloatMult            0      0.00%     69.42% # Class of committed instruction (Count)
system.cpu0.commit.committedInstType_0::FloatMultAcc            0      0.00%     69.42% # Class of committed instruction (Count)
system.cpu0.commit.committedInstType_0::FloatDiv            0      0.00%     69.42% # Class of committed instruction (Count)
system.cpu0.commit.committedInstType_0::FloatMisc            0      0.00%     69.42% # Class of committed instruction (Count)
system.cpu0.commit.committedInstType_0::FloatSqrt            0      0.00%     69.42% # Class of committed instruction (Count)
system.cpu0.commit.committedInstType_0::SimdAdd         6370      0.01%     69.43% # Class of committed instruction (Count)
system.cpu0.commit.committedInstType_0::SimdAddAcc            0      0.00%     69.43% # Class of committed instruction (Count)
system.cpu0.commit.committedInstType_0::SimdAlu        12127      0.02%     69.46% # Class of committed instruction (Count)
system.cpu0.commit.committedInstType_0::SimdCmp           12      0.00%     69.46% # Class of committed instruction (Count)
system.cpu0.commit.committedInstType_0::SimdCvt        12724      0.03%     69.48% # Class of committed instruction (Count)
system.cpu0.commit.committedInstType_0::SimdMisc        13918      0.03%     69.51% # Class of committed instruction (Count)
system.cpu0.commit.committedInstType_0::SimdMult            0      0.00%     69.51% # Class of committed instruction (Count)
system.cpu0.commit.committedInstType_0::SimdMultAcc            0      0.00%     69.51% # Class of committed instruction (Count)
system.cpu0.commit.committedInstType_0::SimdShift         1170      0.00%     69.51% # Class of committed instruction (Count)
system.cpu0.commit.committedInstType_0::SimdShiftAcc            0      0.00%     69.51% # Class of committed instruction (Count)
system.cpu0.commit.committedInstType_0::SimdDiv            0      0.00%     69.51% # Class of committed instruction (Count)
system.cpu0.commit.committedInstType_0::SimdSqrt            0      0.00%     69.51% # Class of committed instruction (Count)
system.cpu0.commit.committedInstType_0::SimdFloatAdd            0      0.00%     69.51% # Class of committed instruction (Count)
system.cpu0.commit.committedInstType_0::SimdFloatAlu            0      0.00%     69.51% # Class of committed instruction (Count)
system.cpu0.commit.committedInstType_0::SimdFloatCmp            0      0.00%     69.51% # Class of committed instruction (Count)
system.cpu0.commit.committedInstType_0::SimdFloatCvt            0      0.00%     69.51% # Class of committed instruction (Count)
system.cpu0.commit.committedInstType_0::SimdFloatDiv            0      0.00%     69.51% # Class of committed instruction (Count)
system.cpu0.commit.committedInstType_0::SimdFloatMisc            0      0.00%     69.51% # Class of committed instruction (Count)
system.cpu0.commit.committedInstType_0::SimdFloatMult            0      0.00%     69.51% # Class of committed instruction (Count)
system.cpu0.commit.committedInstType_0::SimdFloatMultAcc            0      0.00%     69.51% # Class of committed instruction (Count)
system.cpu0.commit.committedInstType_0::SimdFloatSqrt            0      0.00%     69.51% # Class of committed instruction (Count)
system.cpu0.commit.committedInstType_0::SimdReduceAdd            0      0.00%     69.51% # Class of committed instruction (Count)
system.cpu0.commit.committedInstType_0::SimdReduceAlu            0      0.00%     69.51% # Class of committed instruction (Count)
system.cpu0.commit.committedInstType_0::SimdReduceCmp            0      0.00%     69.51% # Class of committed instruction (Count)
system.cpu0.commit.committedInstType_0::SimdFloatReduceAdd            0      0.00%     69.51% # Class of committed instruction (Count)
system.cpu0.commit.committedInstType_0::SimdFloatReduceCmp            0      0.00%     69.51% # Class of committed instruction (Count)
system.cpu0.commit.committedInstType_0::SimdAes            0      0.00%     69.51% # Class of committed instruction (Count)
system.cpu0.commit.committedInstType_0::SimdAesMix            0      0.00%     69.51% # Class of committed instruction (Count)
system.cpu0.commit.committedInstType_0::SimdSha1Hash            0      0.00%     69.51% # Class of committed instruction (Count)
system.cpu0.commit.committedInstType_0::SimdSha1Hash2            0      0.00%     69.51% # Class of committed instruction (Count)
system.cpu0.commit.committedInstType_0::SimdSha256Hash            0      0.00%     69.51% # Class of committed instruction (Count)
system.cpu0.commit.committedInstType_0::SimdSha256Hash2            0      0.00%     69.51% # Class of committed instruction (Count)
system.cpu0.commit.committedInstType_0::SimdShaSigma2            0      0.00%     69.51% # Class of committed instruction (Count)
system.cpu0.commit.committedInstType_0::SimdShaSigma3            0      0.00%     69.51% # Class of committed instruction (Count)
system.cpu0.commit.committedInstType_0::SimdPredAlu            0      0.00%     69.51% # Class of committed instruction (Count)
system.cpu0.commit.committedInstType_0::MemRead      7835018     15.42%     84.93% # Class of committed instruction (Count)
system.cpu0.commit.committedInstType_0::MemWrite      7628027     15.01%     99.94% # Class of committed instruction (Count)
system.cpu0.commit.committedInstType_0::FloatMemRead        16676      0.03%     99.97% # Class of committed instruction (Count)
system.cpu0.commit.committedInstType_0::FloatMemWrite        15245      0.03%    100.00% # Class of committed instruction (Count)
system.cpu0.commit.committedInstType_0::IprAccess            0      0.00%    100.00% # Class of committed instruction (Count)
system.cpu0.commit.committedInstType_0::InstPrefetch            0      0.00%    100.00% # Class of committed instruction (Count)
system.cpu0.commit.committedInstType_0::total     50821488                       # Class of committed instruction (Count)
system.cpu0.commit.commitEligibleSamples      2220651                       # number cycles where commit BW limit reached (Cycle)
system.cpu0.decode.idleCycles                 1934196                       # Number of cycles decode is idle (Cycle)
system.cpu0.decode.blockedCycles            137363031                       # Number of cycles decode is blocked (Cycle)
system.cpu0.decode.runCycles                  3010506                       # Number of cycles decode is running (Cycle)
system.cpu0.decode.unblockCycles              3709137                       # Number of cycles decode is unblocking (Cycle)
system.cpu0.decode.squashCycles                 17936                       # Number of cycles decode is squashing (Cycle)
system.cpu0.decode.branchResolved             2404336                       # Number of times decode resolved a branch (Count)
system.cpu0.decode.branchMispred                 1395                       # Number of times decode detected a branch misprediction (Count)
system.cpu0.decode.decodedInsts              52445373                       # Number of instructions handled by decode (Count)
system.cpu0.decode.squashedInsts                 7036                       # Number of squashed instructions handled by decode (Count)
system.cpu0.fetch.icacheStallCycles           5152070                       # Number of cycles fetch is stalled on an Icache miss (Cycle)
system.cpu0.fetch.insts                      27538008                       # Number of instructions fetch has processed (Count)
system.cpu0.fetch.branches                    4815131                       # Number of branches that fetch encountered (Count)
system.cpu0.fetch.predictedBranches           4608823                       # Number of branches that fetch has predicted taken (Count)
system.cpu0.fetch.cycles                    140657193                       # Number of cycles fetch has run and was not squashing or blocked (Cycle)
system.cpu0.fetch.squashCycles                  38596                       # Number of cycles fetch has spent squashing (Cycle)
system.cpu0.fetch.miscStallCycles                7317                       # Number of cycles fetch has spent waiting on interrupts, or bad addresses, or out of MSHRs (Cycle)
system.cpu0.fetch.pendingTrapStallCycles        12213                       # Number of stall cycles due to pending traps (Cycle)
system.cpu0.fetch.icacheWaitRetryStallCycles       186715                       # Number of stall cycles due to full MSHR (Cycle)
system.cpu0.fetch.cacheLines                  4912685                       # Number of cache lines fetched (Count)
system.cpu0.fetch.icacheSquashes                 3759                       # Number of outstanding Icache misses that were squashed (Count)
system.cpu0.fetch.nisnDist::samples         146034806                       # Number of instructions fetched each cycle (Total) (Count)
system.cpu0.fetch.nisnDist::mean             0.361632                       # Number of instructions fetched each cycle (Total) (Count)
system.cpu0.fetch.nisnDist::stdev            1.526008                       # Number of instructions fetched each cycle (Total) (Count)
system.cpu0.fetch.nisnDist::underflows              0      0.00%      0.00% # Number of instructions fetched each cycle (Total) (Count)
system.cpu0.fetch.nisnDist::0               136944834     93.78%     93.78% # Number of instructions fetched each cycle (Total) (Count)
system.cpu0.fetch.nisnDist::1                  577062      0.40%     94.17% # Number of instructions fetched each cycle (Total) (Count)
system.cpu0.fetch.nisnDist::2                  692914      0.47%     94.65% # Number of instructions fetched each cycle (Total) (Count)
system.cpu0.fetch.nisnDist::3                  694647      0.48%     95.12% # Number of instructions fetched each cycle (Total) (Count)
system.cpu0.fetch.nisnDist::4                  941248      0.64%     95.77% # Number of instructions fetched each cycle (Total) (Count)
system.cpu0.fetch.nisnDist::5                  596861      0.41%     96.17% # Number of instructions fetched each cycle (Total) (Count)
system.cpu0.fetch.nisnDist::6                 1125690      0.77%     96.94% # Number of instructions fetched each cycle (Total) (Count)
system.cpu0.fetch.nisnDist::7                  431780      0.30%     97.24% # Number of instructions fetched each cycle (Total) (Count)
system.cpu0.fetch.nisnDist::8                 4029770      2.76%    100.00% # Number of instructions fetched each cycle (Total) (Count)
system.cpu0.fetch.nisnDist::overflows               0      0.00%    100.00% # Number of instructions fetched each cycle (Total) (Count)
system.cpu0.fetch.nisnDist::min_value               0                       # Number of instructions fetched each cycle (Total) (Count)
system.cpu0.fetch.nisnDist::max_value               8                       # Number of instructions fetched each cycle (Total) (Count)
system.cpu0.fetch.nisnDist::total           146034806                       # Number of instructions fetched each cycle (Total) (Count)
system.cpu0.fetch.branchRate                 0.032682                       # Number of branch fetches per cycle (Ratio)
system.cpu0.fetch.rate                       0.186911                       # Number of inst fetches per cycle ((Count/Cycle))
system.cpu0.iew.idleCycles                          0                       # Number of cycles IEW is idle (Cycle)
system.cpu0.iew.squashCycles                    17936                       # Number of cycles IEW is squashing (Cycle)
system.cpu0.iew.blockCycles                   5903802                       # Number of cycles IEW is blocking (Cycle)
system.cpu0.iew.unblockCycles                  117891                       # Number of cycles IEW is unblocking (Cycle)
system.cpu0.iew.dispatchedInsts              52261542                       # Number of instructions dispatched to IQ (Count)
system.cpu0.iew.dispSquashedInsts                 838                       # Number of squashed instructions skipped by dispatch (Count)
system.cpu0.iew.dispLoadInsts                 8053371                       # Number of dispatched load instructions (Count)
system.cpu0.iew.dispStoreInsts                7773494                       # Number of dispatched store instructions (Count)
system.cpu0.iew.dispNonSpecInsts                 1008                       # Number of dispatched non-speculative instructions (Count)
system.cpu0.iew.iqFullEvents                    10417                       # Number of times the IQ has become full, causing a stall (Count)
system.cpu0.iew.lsqFullEvents                  101009                       # Number of times the LSQ has become full, causing a stall (Count)
system.cpu0.iew.memOrderViolationEvents           651                       # Number of memory order violations (Count)
system.cpu0.iew.predictedTakenIncorrect          5813                       # Number of branches that were predicted taken incorrectly (Count)
system.cpu0.iew.predictedNotTakenIncorrect        10905                       # Number of branches that were predicted not taken incorrectly (Count)
system.cpu0.iew.branchMispredicts               16718                       # Number of branch mispredicts detected at execute (Count)
system.cpu0.iew.instsToCommit                51834085                       # Cumulative count of insts sent to commit (Count)
system.cpu0.iew.writebackCount               51813467                       # Cumulative count of insts written-back (Count)
system.cpu0.iew.producerInst                 29797337                       # Number of instructions producing a value (Count)
system.cpu0.iew.consumerInst                 53911325                       # Number of instructions consuming a value (Count)
system.cpu0.iew.wbRate                       0.351677                       # Insts written-back per cycle ((Count/Cycle))
system.cpu0.iew.wbFanout                     0.552710                       # Average fanout of values written-back ((Count/Count))
system.cpu0.interrupts.clk_domain.clock          8000                       # Clock period in ticks (Tick)
system.cpu0.lsq0.forwLoads                    6400874                       # Number of loads that had data forwarded from stores (Count)
system.cpu0.lsq0.squashedLoads                 201677                       # Number of loads squashed (Count)
system.cpu0.lsq0.ignoredResponses                 714                       # Number of memory responses ignored because the instruction is squashed (Count)
system.cpu0.lsq0.memOrderViolation                651                       # Number of memory ordering violations (Count)
system.cpu0.lsq0.squashedStores                130222                       # Number of stores squashed (Count)
system.cpu0.lsq0.rescheduledLoads                  25                       # Number of loads that were rescheduled (Count)
system.cpu0.lsq0.blockedByCache                  1646                       # Number of times an access to memory failed due to the cache being blocked (Count)
system.cpu0.lsq0.loadToUse::samples           7851694                       # Distribution of cycle latency between the first time a load is issued and its completion (Unspecified)
system.cpu0.lsq0.loadToUse::mean             5.937113                       # Distribution of cycle latency between the first time a load is issued and its completion (Unspecified)
system.cpu0.lsq0.loadToUse::stdev           54.513310                       # Distribution of cycle latency between the first time a load is issued and its completion (Unspecified)
system.cpu0.lsq0.loadToUse::0-9               7808857     99.45%     99.45% # Distribution of cycle latency between the first time a load is issued and its completion (Unspecified)
system.cpu0.lsq0.loadToUse::10-19                  41      0.00%     99.45% # Distribution of cycle latency between the first time a load is issued and its completion (Unspecified)
system.cpu0.lsq0.loadToUse::20-29                  46      0.00%     99.46% # Distribution of cycle latency between the first time a load is issued and its completion (Unspecified)
system.cpu0.lsq0.loadToUse::30-39                  35      0.00%     99.46% # Distribution of cycle latency between the first time a load is issued and its completion (Unspecified)
system.cpu0.lsq0.loadToUse::40-49                  57      0.00%     99.46% # Distribution of cycle latency between the first time a load is issued and its completion (Unspecified)
system.cpu0.lsq0.loadToUse::50-59                 104      0.00%     99.46% # Distribution of cycle latency between the first time a load is issued and its completion (Unspecified)
system.cpu0.lsq0.loadToUse::60-69                  38      0.00%     99.46% # Distribution of cycle latency between the first time a load is issued and its completion (Unspecified)
system.cpu0.lsq0.loadToUse::70-79                  25      0.00%     99.46% # Distribution of cycle latency between the first time a load is issued and its completion (Unspecified)
system.cpu0.lsq0.loadToUse::80-89                  34      0.00%     99.46% # Distribution of cycle latency between the first time a load is issued and its completion (Unspecified)
system.cpu0.lsq0.loadToUse::90-99                  19      0.00%     99.46% # Distribution of cycle latency between the first time a load is issued and its completion (Unspecified)
system.cpu0.lsq0.loadToUse::100-109                26      0.00%     99.46% # Distribution of cycle latency between the first time a load is issued and its completion (Unspecified)
system.cpu0.lsq0.loadToUse::110-119                39      0.00%     99.46% # Distribution of cycle latency between the first time a load is issued and its completion (Unspecified)
system.cpu0.lsq0.loadToUse::120-129                29      0.00%     99.46% # Distribution of cycle latency between the first time a load is issued and its completion (Unspecified)
system.cpu0.lsq0.loadToUse::130-139                27      0.00%     99.46% # Distribution of cycle latency between the first time a load is issued and its completion (Unspecified)
system.cpu0.lsq0.loadToUse::140-149                33      0.00%     99.46% # Distribution of cycle latency between the first time a load is issued and its completion (Unspecified)
system.cpu0.lsq0.loadToUse::150-159                47      0.00%     99.46% # Distribution of cycle latency between the first time a load is issued and its completion (Unspecified)
system.cpu0.lsq0.loadToUse::160-169                33      0.00%     99.46% # Distribution of cycle latency between the first time a load is issued and its completion (Unspecified)
system.cpu0.lsq0.loadToUse::170-179               102      0.00%     99.46% # Distribution of cycle latency between the first time a load is issued and its completion (Unspecified)
system.cpu0.lsq0.loadToUse::180-189               579      0.01%     99.47% # Distribution of cycle latency between the first time a load is issued and its completion (Unspecified)
system.cpu0.lsq0.loadToUse::190-199                16      0.00%     99.47% # Distribution of cycle latency between the first time a load is issued and its completion (Unspecified)
system.cpu0.lsq0.loadToUse::200-209                25      0.00%     99.47% # Distribution of cycle latency between the first time a load is issued and its completion (Unspecified)
system.cpu0.lsq0.loadToUse::210-219                52      0.00%     99.47% # Distribution of cycle latency between the first time a load is issued and its completion (Unspecified)
system.cpu0.lsq0.loadToUse::220-229                47      0.00%     99.47% # Distribution of cycle latency between the first time a load is issued and its completion (Unspecified)
system.cpu0.lsq0.loadToUse::230-239               139      0.00%     99.47% # Distribution of cycle latency between the first time a load is issued and its completion (Unspecified)
system.cpu0.lsq0.loadToUse::240-249               784      0.01%     99.48% # Distribution of cycle latency between the first time a load is issued and its completion (Unspecified)
system.cpu0.lsq0.loadToUse::250-259                25      0.00%     99.49% # Distribution of cycle latency between the first time a load is issued and its completion (Unspecified)
system.cpu0.lsq0.loadToUse::260-269                40      0.00%     99.49% # Distribution of cycle latency between the first time a load is issued and its completion (Unspecified)
system.cpu0.lsq0.loadToUse::270-279                69      0.00%     99.49% # Distribution of cycle latency between the first time a load is issued and its completion (Unspecified)
system.cpu0.lsq0.loadToUse::280-289                78      0.00%     99.49% # Distribution of cycle latency between the first time a load is issued and its completion (Unspecified)
system.cpu0.lsq0.loadToUse::290-299               215      0.00%     99.49% # Distribution of cycle latency between the first time a load is issued and its completion (Unspecified)
system.cpu0.lsq0.loadToUse::overflows           40033      0.51%    100.00% # Distribution of cycle latency between the first time a load is issued and its completion (Unspecified)
system.cpu0.lsq0.loadToUse::min_value               2                       # Distribution of cycle latency between the first time a load is issued and its completion (Unspecified)
system.cpu0.lsq0.loadToUse::max_value            2142                       # Distribution of cycle latency between the first time a load is issued and its completion (Unspecified)
system.cpu0.lsq0.loadToUse::total             7851694                       # Distribution of cycle latency between the first time a load is issued and its completion (Unspecified)
system.cpu0.mmu.dtb.rdAccesses                8011032                       # TLB accesses on read requests (Count)
system.cpu0.mmu.dtb.wrAccesses                7755933                       # TLB accesses on write requests (Count)
system.cpu0.mmu.dtb.rdMisses                     3583                       # TLB misses on read requests (Count)
system.cpu0.mmu.dtb.wrMisses                    14744                       # TLB misses on write requests (Count)
system.cpu0.mmu.dtb.walker.power_state.pwrStateResidencyTicks::UNDEFINED  73666197000                       # Cumulative time (in ticks) in various power states (Tick)
system.cpu0.mmu.itb.rdAccesses                      0                       # TLB accesses on read requests (Count)
system.cpu0.mmu.itb.wrAccesses                4914482                       # TLB accesses on write requests (Count)
system.cpu0.mmu.itb.rdMisses                        0                       # TLB misses on read requests (Count)
system.cpu0.mmu.itb.wrMisses                     2572                       # TLB misses on write requests (Count)
system.cpu0.mmu.itb.walker.power_state.pwrStateResidencyTicks::UNDEFINED  73666197000                       # Cumulative time (in ticks) in various power states (Tick)
system.cpu0.power_state.pwrStateResidencyTicks::ON  73666197000                       # Cumulative time (in ticks) in various power states (Tick)
system.cpu0.rename.squashCycles                 17936                       # Number of cycles rename is squashing (Cycle)
system.cpu0.rename.idleCycles                 3341194                       # Number of cycles rename is idle (Cycle)
system.cpu0.rename.blockCycles                6648290                       # Number of cycles rename is blocking (Cycle)
system.cpu0.rename.serializeStallCycles         20803                       # count of cycles rename stalled for serializing inst (Cycle)
system.cpu0.rename.runCycles                  5302835                       # Number of cycles rename is running (Cycle)
system.cpu0.rename.unblockCycles            130703748                       # Number of cycles rename is unblocking (Cycle)
system.cpu0.rename.renamedInsts              52359387                       # Number of instructions processed by rename (Count)
system.cpu0.rename.ROBFullEvents                31929                       # Number of times rename has blocked due to ROB full (Count)
system.cpu0.rename.IQFullEvents                439632                       # Number of times rename has blocked due to IQ full (Count)
system.cpu0.rename.LQFullEvents                131205                       # Number of times rename has blocked due to LQ full (Count)
system.cpu0.rename.SQFullEvents             129527482                       # Number of times rename has blocked due to SQ full (Count)
system.cpu0.rename.fullRegistersEvents           1435                       # Number of times there has been no free registers (Count)
system.cpu0.rename.renamedOperands           50999622                       # Number of destination operands rename has renamed (Count)
system.cpu0.rename.lookups                  126510904                       # Number of register rename lookups that rename has made (Count)
system.cpu0.rename.intLookups                69020814                       # Number of integer rename lookups (Count)
system.cpu0.rename.fpLookups                   188283                       # Number of floating rename lookups (Count)
system.cpu0.rename.committedMaps             48482135                       # Number of HB maps that are committed (Count)
system.cpu0.rename.undoneMaps                 2517487                       # Number of HB maps that are undone due to squashing (Count)
system.cpu0.rename.serializing                    965                       # count of serializing insts renamed (Count)
system.cpu0.rename.tempSerializing                952                       # count of temporary serializing insts renamed (Count)
system.cpu0.rename.skidInsts                 19171889                       # count of insts added to the skid buffer (Count)
system.cpu0.rob.reads                       195839259                       # The number of ROB reads (Count)
system.cpu0.rob.writes                      104695557                       # The number of ROB writes (Count)
system.cpu0.thread_0.numInsts                26438819                       # Number of Instructions committed (Count)
system.cpu0.thread_0.numOps                  50821488                       # Number of Ops committed (Count)
system.cpu0.thread_0.numMemRefs                     0                       # Number of Memory References (Count)
system.cpu0.workload.numSyscalls                   77                       # Number of system calls (Count)
system.cpu1.numCycles                       147332395                       # Number of cpu cycles simulated (Cycle)
system.cpu1.numWorkItemsStarted                     0                       # Number of work items this cpu started (Count)
system.cpu1.numWorkItemsCompleted                   0                       # Number of work items this cpu completed (Count)
system.cpu1.instsAdded                       54072820                       # Number of instructions added to the IQ (excludes non-spec) (Count)
system.cpu1.nonSpecInstsAdded                    1213                       # Number of non-speculative instructions added to the IQ (Count)
system.cpu1.instsIssued                      53685924                       # Number of instructions issued (Count)
system.cpu1.squashedInstsIssued                  1867                       # Number of squashed instructions issued (Count)
system.cpu1.squashedInstsExamined             1457518                       # Number of squashed instructions iterated over during squash; mainly for profiling (Count)
system.cpu1.squashedOperandsExamined          2283947                       # Number of squashed operands that are examined and possibly removed from graph (Count)
system.cpu1.squashedNonSpecRemoved                 96                       # Number of squashed non-spec instructions that were removed (Count)
system.cpu1.numIssuedDist::samples          146084601                       # Number of insts issued each cycle (Count)
system.cpu1.numIssuedDist::mean              0.367499                       # Number of insts issued each cycle (Count)
system.cpu1.numIssuedDist::stdev             1.120481                       # Number of insts issued each cycle (Count)
system.cpu1.numIssuedDist::underflows               0      0.00%      0.00% # Number of insts issued each cycle (Count)
system.cpu1.numIssuedDist::0                128411027     87.90%     87.90% # Number of insts issued each cycle (Count)
system.cpu1.numIssuedDist::1                  2899524      1.98%     89.89% # Number of insts issued each cycle (Count)
system.cpu1.numIssuedDist::2                  4400250      3.01%     92.90% # Number of insts issued each cycle (Count)
system.cpu1.numIssuedDist::3                  3994863      2.73%     95.63% # Number of insts issued each cycle (Count)
system.cpu1.numIssuedDist::4                  3474003      2.38%     98.01% # Number of insts issued each cycle (Count)
system.cpu1.numIssuedDist::5                  1761806      1.21%     99.22% # Number of insts issued each cycle (Count)
system.cpu1.numIssuedDist::6                   811498      0.56%     99.77% # Number of insts issued each cycle (Count)
system.cpu1.numIssuedDist::7                   225759      0.15%     99.93% # Number of insts issued each cycle (Count)
system.cpu1.numIssuedDist::8                   105871      0.07%    100.00% # Number of insts issued each cycle (Count)
system.cpu1.numIssuedDist::overflows                0      0.00%    100.00% # Number of insts issued each cycle (Count)
system.cpu1.numIssuedDist::min_value                0                       # Number of insts issued each cycle (Count)
system.cpu1.numIssuedDist::max_value                8                       # Number of insts issued each cycle (Count)
system.cpu1.numIssuedDist::total            146084601                       # Number of insts issued each cycle (Count)
system.cpu1.statFuBusy::No_OpClass                  0      0.00%      0.00% # attempts to use FU when none available (Count)
system.cpu1.statFuBusy::IntAlu                  45555     28.75%     28.75% # attempts to use FU when none available (Count)
system.cpu1.statFuBusy::IntMult                     0      0.00%     28.75% # attempts to use FU when none available (Count)
system.cpu1.statFuBusy::IntDiv                      0      0.00%     28.75% # attempts to use FU when none available (Count)
system.cpu1.statFuBusy::FloatAdd                    0      0.00%     28.75% # attempts to use FU when none available (Count)
system.cpu1.statFuBusy::FloatCmp                    0      0.00%     28.75% # attempts to use FU when none available (Count)
system.cpu1.statFuBusy::FloatCvt                    0      0.00%     28.75% # attempts to use FU when none available (Count)
system.cpu1.statFuBusy::FloatMult                   0      0.00%     28.75% # attempts to use FU when none available (Count)
system.cpu1.statFuBusy::FloatMultAcc                0      0.00%     28.75% # attempts to use FU when none available (Count)
system.cpu1.statFuBusy::FloatDiv                    0      0.00%     28.75% # attempts to use FU when none available (Count)
system.cpu1.statFuBusy::FloatMisc                   0      0.00%     28.75% # attempts to use FU when none available (Count)
system.cpu1.statFuBusy::FloatSqrt                   0      0.00%     28.75% # attempts to use FU when none available (Count)
system.cpu1.statFuBusy::SimdAdd                    12      0.01%     28.75% # attempts to use FU when none available (Count)
system.cpu1.statFuBusy::SimdAddAcc                  0      0.00%     28.75% # attempts to use FU when none available (Count)
system.cpu1.statFuBusy::SimdAlu                   117      0.07%     28.83% # attempts to use FU when none available (Count)
system.cpu1.statFuBusy::SimdCmp                     0      0.00%     28.83% # attempts to use FU when none available (Count)
system.cpu1.statFuBusy::SimdCvt                   240      0.15%     28.98% # attempts to use FU when none available (Count)
system.cpu1.statFuBusy::SimdMisc                   23      0.01%     28.99% # attempts to use FU when none available (Count)
system.cpu1.statFuBusy::SimdMult                    0      0.00%     28.99% # attempts to use FU when none available (Count)
system.cpu1.statFuBusy::SimdMultAcc                 0      0.00%     28.99% # attempts to use FU when none available (Count)
system.cpu1.statFuBusy::SimdShift                 174      0.11%     29.10% # attempts to use FU when none available (Count)
system.cpu1.statFuBusy::SimdShiftAcc                0      0.00%     29.10% # attempts to use FU when none available (Count)
system.cpu1.statFuBusy::SimdDiv                     0      0.00%     29.10% # attempts to use FU when none available (Count)
system.cpu1.statFuBusy::SimdSqrt                    0      0.00%     29.10% # attempts to use FU when none available (Count)
system.cpu1.statFuBusy::SimdFloatAdd                0      0.00%     29.10% # attempts to use FU when none available (Count)
system.cpu1.statFuBusy::SimdFloatAlu                0      0.00%     29.10% # attempts to use FU when none available (Count)
system.cpu1.statFuBusy::SimdFloatCmp                0      0.00%     29.10% # attempts to use FU when none available (Count)
system.cpu1.statFuBusy::SimdFloatCvt                0      0.00%     29.10% # attempts to use FU when none available (Count)
system.cpu1.statFuBusy::SimdFloatDiv                0      0.00%     29.10% # attempts to use FU when none available (Count)
system.cpu1.statFuBusy::SimdFloatMisc               0      0.00%     29.10% # attempts to use FU when none available (Count)
system.cpu1.statFuBusy::SimdFloatMult               0      0.00%     29.10% # attempts to use FU when none available (Count)
system.cpu1.statFuBusy::SimdFloatMultAcc            0      0.00%     29.10% # attempts to use FU when none available (Count)
system.cpu1.statFuBusy::SimdFloatSqrt               0      0.00%     29.10% # attempts to use FU when none available (Count)
system.cpu1.statFuBusy::SimdReduceAdd               0      0.00%     29.10% # attempts to use FU when none available (Count)
system.cpu1.statFuBusy::SimdReduceAlu               0      0.00%     29.10% # attempts to use FU when none available (Count)
system.cpu1.statFuBusy::SimdReduceCmp               0      0.00%     29.10% # attempts to use FU when none available (Count)
system.cpu1.statFuBusy::SimdFloatReduceAdd            0      0.00%     29.10% # attempts to use FU when none available (Count)
system.cpu1.statFuBusy::SimdFloatReduceCmp            0      0.00%     29.10% # attempts to use FU when none available (Count)
system.cpu1.statFuBusy::SimdAes                     0      0.00%     29.10% # attempts to use FU when none available (Count)
system.cpu1.statFuBusy::SimdAesMix                  0      0.00%     29.10% # attempts to use FU when none available (Count)
system.cpu1.statFuBusy::SimdSha1Hash                0      0.00%     29.10% # attempts to use FU when none available (Count)
system.cpu1.statFuBusy::SimdSha1Hash2               0      0.00%     29.10% # attempts to use FU when none available (Count)
system.cpu1.statFuBusy::SimdSha256Hash              0      0.00%     29.10% # attempts to use FU when none available (Count)
system.cpu1.statFuBusy::SimdSha256Hash2             0      0.00%     29.10% # attempts to use FU when none available (Count)
system.cpu1.statFuBusy::SimdShaSigma2               0      0.00%     29.10% # attempts to use FU when none available (Count)
system.cpu1.statFuBusy::SimdShaSigma3               0      0.00%     29.10% # attempts to use FU when none available (Count)
system.cpu1.statFuBusy::SimdPredAlu                 0      0.00%     29.10% # attempts to use FU when none available (Count)
system.cpu1.statFuBusy::MemRead                100935     63.69%     92.80% # attempts to use FU when none available (Count)
system.cpu1.statFuBusy::MemWrite                10425      6.58%     99.38% # attempts to use FU when none available (Count)
system.cpu1.statFuBusy::FloatMemRead              678      0.43%     99.80% # attempts to use FU when none available (Count)
system.cpu1.statFuBusy::FloatMemWrite             310      0.20%    100.00% # attempts to use FU when none available (Count)
system.cpu1.statFuBusy::IprAccess                   0      0.00%    100.00% # attempts to use FU when none available (Count)
system.cpu1.statFuBusy::InstPrefetch                0      0.00%    100.00% # attempts to use FU when none available (Count)
system.cpu1.statIssuedInstType_0::No_OpClass      2269019      4.23%      4.23% # Number of instructions issued per FU type, per thread (Count)
system.cpu1.statIssuedInstType_0::IntAlu     34962781     65.12%     69.35% # Number of instructions issued per FU type, per thread (Count)
system.cpu1.statIssuedInstType_0::IntMult          232      0.00%     69.35% # Number of instructions issued per FU type, per thread (Count)
system.cpu1.statIssuedInstType_0::IntDiv        39642      0.07%     69.43% # Number of instructions issued per FU type, per thread (Count)
system.cpu1.statIssuedInstType_0::FloatAdd         9072      0.02%     69.44% # Number of instructions issued per FU type, per thread (Count)
system.cpu1.statIssuedInstType_0::FloatCmp            0      0.00%     69.44% # Number of instructions issued per FU type, per thread (Count)
system.cpu1.statIssuedInstType_0::FloatCvt         1582      0.00%     69.45% # Number of instructions issued per FU type, per thread (Count)
system.cpu1.statIssuedInstType_0::FloatMult            0      0.00%     69.45% # Number of instructions issued per FU type, per thread (Count)
system.cpu1.statIssuedInstType_0::FloatMultAcc            0      0.00%     69.45% # Number of instructions issued per FU type, per thread (Count)
system.cpu1.statIssuedInstType_0::FloatDiv            0      0.00%     69.45% # Number of instructions issued per FU type, per thread (Count)
system.cpu1.statIssuedInstType_0::FloatMisc            0      0.00%     69.45% # Number of instructions issued per FU type, per thread (Count)
system.cpu1.statIssuedInstType_0::FloatSqrt            0      0.00%     69.45% # Number of instructions issued per FU type, per thread (Count)
system.cpu1.statIssuedInstType_0::SimdAdd         7123      0.01%     69.46% # Number of instructions issued per FU type, per thread (Count)
system.cpu1.statIssuedInstType_0::SimdAddAcc            0      0.00%     69.46% # Number of instructions issued per FU type, per thread (Count)
system.cpu1.statIssuedInstType_0::SimdAlu        15344      0.03%     69.49% # Number of instructions issued per FU type, per thread (Count)
system.cpu1.statIssuedInstType_0::SimdCmp           12      0.00%     69.49% # Number of instructions issued per FU type, per thread (Count)
system.cpu1.statIssuedInstType_0::SimdCvt        15181      0.03%     69.52% # Number of instructions issued per FU type, per thread (Count)
system.cpu1.statIssuedInstType_0::SimdMisc        15277      0.03%     69.54% # Number of instructions issued per FU type, per thread (Count)
system.cpu1.statIssuedInstType_0::SimdMult            0      0.00%     69.54% # Number of instructions issued per FU type, per thread (Count)
system.cpu1.statIssuedInstType_0::SimdMultAcc            0      0.00%     69.54% # Number of instructions issued per FU type, per thread (Count)
system.cpu1.statIssuedInstType_0::SimdShift         2604      0.00%     69.55% # Number of instructions issued per FU type, per thread (Count)
system.cpu1.statIssuedInstType_0::SimdShiftAcc            0      0.00%     69.55% # Number of instructions issued per FU type, per thread (Count)
system.cpu1.statIssuedInstType_0::SimdDiv            0      0.00%     69.55% # Number of instructions issued per FU type, per thread (Count)
system.cpu1.statIssuedInstType_0::SimdSqrt            0      0.00%     69.55% # Number of instructions issued per FU type, per thread (Count)
system.cpu1.statIssuedInstType_0::SimdFloatAdd            0      0.00%     69.55% # Number of instructions issued per FU type, per thread (Count)
system.cpu1.statIssuedInstType_0::SimdFloatAlu            0      0.00%     69.55% # Number of instructions issued per FU type, per thread (Count)
system.cpu1.statIssuedInstType_0::SimdFloatCmp            0      0.00%     69.55% # Number of instructions issued per FU type, per thread (Count)
system.cpu1.statIssuedInstType_0::SimdFloatCvt            0      0.00%     69.55% # Number of instructions issued per FU type, per thread (Count)
system.cpu1.statIssuedInstType_0::SimdFloatDiv            0      0.00%     69.55% # Number of instructions issued per FU type, per thread (Count)
system.cpu1.statIssuedInstType_0::SimdFloatMisc            0      0.00%     69.55% # Number of instructions issued per FU type, per thread (Count)
system.cpu1.statIssuedInstType_0::SimdFloatMult            0      0.00%     69.55% # Number of instructions issued per FU type, per thread (Count)
system.cpu1.statIssuedInstType_0::SimdFloatMultAcc            0      0.00%     69.55% # Number of instructions issued per FU type, per thread (Count)
system.cpu1.statIssuedInstType_0::SimdFloatSqrt            0      0.00%     69.55% # Number of instructions issued per FU type, per thread (Count)
system.cpu1.statIssuedInstType_0::SimdReduceAdd            0      0.00%     69.55% # Number of instructions issued per FU type, per thread (Count)
system.cpu1.statIssuedInstType_0::SimdReduceAlu            0      0.00%     69.55% # Number of instructions issued per FU type, per thread (Count)
system.cpu1.statIssuedInstType_0::SimdReduceCmp            0      0.00%     69.55% # Number of instructions issued per FU type, per thread (Count)
system.cpu1.statIssuedInstType_0::SimdFloatReduceAdd            0      0.00%     69.55% # Number of instructions issued per FU type, per thread (Count)
system.cpu1.statIssuedInstType_0::SimdFloatReduceCmp            0      0.00%     69.55% # Number of instructions issued per FU type, per thread (Count)
system.cpu1.statIssuedInstType_0::SimdAes            0      0.00%     69.55% # Number of instructions issued per FU type, per thread (Count)
system.cpu1.statIssuedInstType_0::SimdAesMix            0      0.00%     69.55% # Number of instructions issued per FU type, per thread (Count)
system.cpu1.statIssuedInstType_0::SimdSha1Hash            0      0.00%     69.55% # Number of instructions issued per FU type, per thread (Count)
system.cpu1.statIssuedInstType_0::SimdSha1Hash2            0      0.00%     69.55% # Number of instructions issued per FU type, per thread (Count)
system.cpu1.statIssuedInstType_0::SimdSha256Hash            0      0.00%     69.55% # Number of instructions issued per FU type, per thread (Count)
system.cpu1.statIssuedInstType_0::SimdSha256Hash2            0      0.00%     69.55% # Number of instructions issued per FU type, per thread (Count)
system.cpu1.statIssuedInstType_0::SimdShaSigma2            0      0.00%     69.55% # Number of instructions issued per FU type, per thread (Count)
system.cpu1.statIssuedInstType_0::SimdShaSigma3            0      0.00%     69.55% # Number of instructions issued per FU type, per thread (Count)
system.cpu1.statIssuedInstType_0::SimdPredAlu            0      0.00%     69.55% # Number of instructions issued per FU type, per thread (Count)
system.cpu1.statIssuedInstType_0::MemRead      8279859     15.42%     84.97% # Number of instructions issued per FU type, per thread (Count)
system.cpu1.statIssuedInstType_0::MemWrite      8029010     14.96%     99.93% # Number of instructions issued per FU type, per thread (Count)
system.cpu1.statIssuedInstType_0::FloatMemRead        23050      0.04%     99.97% # Number of instructions issued per FU type, per thread (Count)
system.cpu1.statIssuedInstType_0::FloatMemWrite        16136      0.03%    100.00% # Number of instructions issued per FU type, per thread (Count)
system.cpu1.statIssuedInstType_0::IprAccess            0      0.00%    100.00% # Number of instructions issued per FU type, per thread (Count)
system.cpu1.statIssuedInstType_0::InstPrefetch            0      0.00%    100.00% # Number of instructions issued per FU type, per thread (Count)
system.cpu1.statIssuedInstType_0::total      53685924                       # Number of instructions issued per FU type, per thread (Count)
system.cpu1.issueRate                        0.364386                       # Inst issue rate ((Count/Cycle))
system.cpu1.fuBusy                             158469                       # FU busy when requested (Count)
system.cpu1.fuBusyRate                       0.002952                       # FU busy rate (busy events/executed inst) ((Count/Count))
system.cpu1.intInstQueueReads               253394621                       # Number of integer instruction queue reads (Count)
system.cpu1.intInstQueueWrites               55374003                       # Number of integer instruction queue writes (Count)
system.cpu1.intInstQueueWakeupAccesses       53519519                       # Number of integer instruction queue wakeup accesses (Count)
system.cpu1.fpInstQueueReads                   222164                       # Number of floating instruction queue reads (Count)
system.cpu1.fpInstQueueWrites                  158179                       # Number of floating instruction queue writes (Count)
system.cpu1.fpInstQueueWakeupAccesses          106089                       # Number of floating instruction queue wakeup accesses (Count)
system.cpu1.vecInstQueueReads                       0                       # Number of vector instruction queue reads (Count)
system.cpu1.vecInstQueueWrites                      0                       # Number of vector instruction queue writes (Count)
system.cpu1.vecInstQueueWakeupAccesses              0                       # Number of vector instruction queue wakeup accesses (Count)
system.cpu1.intAluAccesses                   51463641                       # Number of integer alu accesses (Count)
system.cpu1.fpAluAccesses                      111733                       # Number of floating point alu accesses (Count)
system.cpu1.vecAluAccesses                          0                       # Number of vector alu accesses (Count)
system.cpu1.numInsts                         53661027                       # Number of executed instructions (Count)
system.cpu1.numLoadInsts                      8297770                       # Number of load instructions executed (Count)
system.cpu1.numSquashedInsts                    24897                       # Number of squashed instructions skipped in execute (Count)
system.cpu1.numSwp                                  0                       # Number of swp insts executed (Count)
system.cpu1.numNop                                  0                       # Number of nop insts executed (Count)
system.cpu1.numRefs                          16340499                       # Number of memory reference insts executed (Count)
system.cpu1.numBranches                       4868288                       # Number of branches executed (Count)
[...]
system.ruby.network.ext_out_link_utilization     52412360                       (Unspecified)
system.ruby.network.flit_network_latency |2077426630500                       |2211122585000                       |200887832500                       (Unspecified)
system.ruby.network.flit_queueing_latency | 21169553500                       | 16118072500                       |  1412325000                       (Unspecified)
system.ruby.network.flits_injected       |    18749006     35.77%     35.77% |    30838742     58.84%     94.61% |     2824657      5.39%    100.00% (Unspecified)
system.ruby.network.flits_injected::total     52412405                       (Unspecified)
system.ruby.network.flits_received       |    18748977     35.77%     35.77% |    30838727     58.84%     94.61% |     2824650      5.39%    100.00% (Unspecified)
system.ruby.network.flits_received::total     52412354                       (Unspecified)
system.ruby.network.int_link_utilization    136234319                       (Unspecified)
system.ruby.network.packet_network_latency |889722131000                       |719511013500                       |200887832500                       (Unspecified)
system.ruby.network.packet_queueing_latency | 10655221500                       |  4363178500                       |  1412325000                       (Unspecified)
system.ruby.network.packets_injected     |     8420974     42.82%     42.82% |     8420958     42.82%     85.64% |     2824657     14.36%    100.00% (Unspecified)
system.ruby.network.packets_injected::total     19666589                       (Unspecified)
system.ruby.network.packets_received     |     8420963     42.82%     42.82% |     8420951     42.82%     85.64% |     2824650     14.36%    100.00% (Unspecified)
system.ruby.network.packets_received::total     19666564                       (Unspecified)
system.ruby.network.routers00.Var_1                 1                       (Unspecified)
system.ruby.network.routers00.Var_2              2780                       (Unspecified)
system.ruby.network.routers00.Var_3              6875                       (Unspecified)
system.ruby.network.routers00.all_counts       519514                       (Unspecified)
system.ruby.network.routers00.buffer_reads      8275913                       (Unspecified)
system.ruby.network.routers00.buffer_writes      8275913                       (Unspecified)
system.ruby.network.routers00.crossbar_activity      8275913                       (Unspecified)
system.ruby.network.routers00.detour_counts         6908                       (Unspecified)
system.ruby.network.routers00.regular_var            0                       (Unspecified)
system.ruby.network.routers00.risk_counts         6910                       (Unspecified)
system.ruby.network.routers00.sw_input_arbiter_activity      8313352                       (Unspecified)
system.ruby.network.routers00.sw_output_arbiter_activity      8275913                       (Unspecified)
system.ruby.network.routers01.Var_1                 0                       (Unspecified)
system.ruby.network.routers01.Var_2              2787                       (Unspecified)
system.ruby.network.routers01.Var_3              9871                       (Unspecified)
system.ruby.network.routers01.all_counts       537294                       (Unspecified)
system.ruby.network.routers01.buffer_reads     11808270                       (Unspecified)
system.ruby.network.routers01.buffer_writes     11808270                       (Unspecified)
system.ruby.network.routers01.crossbar_activity     11808270                       (Unspecified)
system.ruby.network.routers01.detour_counts         9936                       (Unspecified)
system.ruby.network.routers01.regular_var            0                       (Unspecified)
system.ruby.network.routers01.risk_counts         9937                       (Unspecified)
system.ruby.network.routers01.sw_input_arbiter_activity     11893772                       (Unspecified)
system.ruby.network.routers01.sw_output_arbiter_activity     11808270                       (Unspecified)
system.ruby.network.routers02.Var_1                 2                       (Unspecified)
system.ruby.network.routers02.Var_2              2841                       (Unspecified)
system.ruby.network.routers02.Var_3              9995                       (Unspecified)
system.ruby.network.routers02.all_counts       537334                       (Unspecified)
system.ruby.network.routers02.buffer_reads     11803244                       (Unspecified)
system.ruby.network.routers02.buffer_writes     11803244                       (Unspecified)
system.ruby.network.routers02.crossbar_activity     11803244                       (Unspecified)
system.ruby.network.routers02.detour_counts        10065                       (Unspecified)
system.ruby.network.routers02.regular_var            0                       (Unspecified)
system.ruby.network.routers02.risk_counts        10065                       (Unspecified)
system.ruby.network.routers02.sw_input_arbiter_activity     11888193                       (Unspecified)
system.ruby.network.routers02.sw_output_arbiter_activity     11803244                       (Unspecified)
system.ruby.network.routers03.Var_1                 2                       (Unspecified)
system.ruby.network.routers03.Var_2              2828                       (Unspecified)
system.ruby.network.routers03.Var_3             13800                       (Unspecified)
system.ruby.network.routers03.all_counts       518610                       (Unspecified)
system.ruby.network.routers03.buffer_reads      8256509                       (Unspecified)
system.ruby.network.routers03.buffer_writes      8256509                       (Unspecified)
system.ruby.network.routers03.crossbar_activity      8256509                       (Unspecified)
system.ruby.network.routers03.detour_counts        13829                       (Unspecified)
system.ruby.network.routers03.regular_var            1                       (Unspecified)
system.ruby.network.routers03.risk_counts        13831                       (Unspecified)
system.ruby.network.routers03.sw_input_arbiter_activity      8294512                       (Unspecified)
system.ruby.network.routers03.sw_output_arbiter_activity      8256509                       (Unspecified)
system.ruby.network.routers04.Var_1                 2                       (Unspecified)
system.ruby.network.routers04.Var_2              2800                       (Unspecified)
system.ruby.network.routers04.Var_3             98332                       (Unspecified)
system.ruby.network.routers04.all_counts       522938                       (Unspecified)
system.ruby.network.routers04.buffer_reads     11648029                       (Unspecified)
system.ruby.network.routers04.buffer_writes     11648029                       (Unspecified)
system.ruby.network.routers04.crossbar_activity     11648029                       (Unspecified)
system.ruby.network.routers04.detour_counts        98342                       (Unspecified)
system.ruby.network.routers04.regular_var            0                       (Unspecified)
system.ruby.network.routers04.risk_counts        98354                       (Unspecified)
system.ruby.network.routers04.sw_input_arbiter_activity     11725070                       (Unspecified)
system.ruby.network.routers04.sw_output_arbiter_activity     11648029                       (Unspecified)
system.ruby.network.routers05.Var_1                 5                       (Unspecified)
system.ruby.network.routers05.Var_2              2790                       (Unspecified)
system.ruby.network.routers05.Var_3            105115                       (Unspecified)
system.ruby.network.routers05.all_counts       548706                       (Unspecified)
system.ruby.network.routers05.buffer_reads     15440282                       (Unspecified)
system.ruby.network.routers05.buffer_writes     15440282                       (Unspecified)
system.ruby.network.routers05.crossbar_activity     15440282                       (Unspecified)
system.ruby.network.routers05.detour_counts       105159                       (Unspecified)
system.ruby.network.routers05.regular_var            1                       (Unspecified)
system.ruby.network.routers05.risk_counts       105170                       (Unspecified)
system.ruby.network.routers05.sw_input_arbiter_activity     15564207                       (Unspecified)
system.ruby.network.routers05.sw_output_arbiter_activity     15440282                       (Unspecified)
system.ruby.network.routers06.Var_1                 3                       (Unspecified)
system.ruby.network.routers06.Var_2              2803                       (Unspecified)
system.ruby.network.routers06.Var_3            105091                       (Unspecified)
system.ruby.network.routers06.all_counts       548763                       (Unspecified)
system.ruby.network.routers06.buffer_reads     15440594                       (Unspecified)
system.ruby.network.routers06.buffer_writes     15440594                       (Unspecified)
system.ruby.network.routers06.crossbar_activity     15440594                       (Unspecified)
system.ruby.network.routers06.detour_counts       105148                       (Unspecified)
system.ruby.network.routers06.regular_var            0                       (Unspecified)
system.ruby.network.routers06.risk_counts       105159                       (Unspecified)
system.ruby.network.routers06.sw_input_arbiter_activity     15566458                       (Unspecified)
system.ruby.network.routers06.sw_output_arbiter_activity     15440594                       (Unspecified)
system.ruby.network.routers07.Var_1                 1                       (Unspecified)
system.ruby.network.routers07.Var_2              2837                       (Unspecified)
system.ruby.network.routers07.Var_3             98118                       (Unspecified)
system.ruby.network.routers07.all_counts       522496                       (Unspecified)
system.ruby.network.routers07.buffer_reads     11633174                       (Unspecified)
system.ruby.network.routers07.buffer_writes     11633174                       (Unspecified)
system.ruby.network.routers07.crossbar_activity     11633174                       (Unspecified)
system.ruby.network.routers07.detour_counts        98139                       (Unspecified)
system.ruby.network.routers07.regular_var            0                       (Unspecified)
system.ruby.network.routers07.risk_counts        98147                       (Unspecified)
system.ruby.network.routers07.sw_input_arbiter_activity     11709737                       (Unspecified)
system.ruby.network.routers07.sw_output_arbiter_activity     11633174                       (Unspecified)
system.ruby.network.routers08.Var_1                 5                       (Unspecified)
system.ruby.network.routers08.Var_2              2835                       (Unspecified)
system.ruby.network.routers08.Var_3             98349                       (Unspecified)
system.ruby.network.routers08.all_counts       523048                       (Unspecified)
system.ruby.network.routers08.buffer_reads     11652407                       (Unspecified)
system.ruby.network.routers08.buffer_writes     11652407                       (Unspecified)
system.ruby.network.routers08.crossbar_activity     11652407                       (Unspecified)
system.ruby.network.routers08.detour_counts        98359                       (Unspecified)
system.ruby.network.routers08.regular_var            0                       (Unspecified)
system.ruby.network.routers08.risk_counts        98368                       (Unspecified)
system.ruby.network.routers08.sw_input_arbiter_activity     11731558                       (Unspecified)
system.ruby.network.routers08.sw_output_arbiter_activity     11652407                       (Unspecified)
system.ruby.network.routers09.Var_1                 1                       (Unspecified)
system.ruby.network.routers09.Var_2              2762                       (Unspecified)
system.ruby.network.routers09.Var_3            104960                       (Unspecified)
system.ruby.network.routers09.all_counts       548555                       (Unspecified)
system.ruby.network.routers09.buffer_reads     15451703                       (Unspecified)
system.ruby.network.routers09.buffer_writes     15451703                       (Unspecified)
system.ruby.network.routers09.crossbar_activity     15451703                       (Unspecified)
system.ruby.network.routers09.detour_counts       104994                       (Unspecified)
system.ruby.network.routers09.regular_var            0                       (Unspecified)
system.ruby.network.routers09.risk_counts       105010                       (Unspecified)
system.ruby.network.routers09.sw_input_arbiter_activity     15580239                       (Unspecified)
system.ruby.network.routers09.sw_output_arbiter_activity     15451703                       (Unspecified)
system.ruby.network.routers10.Var_1                 3                       (Unspecified)
system.ruby.network.routers10.Var_2              2761                       (Unspecified)
system.ruby.network.routers10.Var_3            105113                       (Unspecified)
system.ruby.network.routers10.all_counts       548867                       (Unspecified)
system.ruby.network.routers10.buffer_reads     15451671                       (Unspecified)
system.ruby.network.routers10.buffer_writes     15451671                       (Unspecified)
system.ruby.network.routers10.crossbar_activity     15451671                       (Unspecified)
system.ruby.network.routers10.detour_counts       105163                       (Unspecified)
system.ruby.network.routers10.regular_var            0                       (Unspecified)
system.ruby.network.routers10.risk_counts       105172                       (Unspecified)
system.ruby.network.routers10.sw_input_arbiter_activity     15579913                       (Unspecified)
system.ruby.network.routers10.sw_output_arbiter_activity     15451671                       (Unspecified)
system.ruby.network.routers11.Var_1                 4                       (Unspecified)
system.ruby.network.routers11.Var_2              2851                       (Unspecified)
system.ruby.network.routers11.Var_3             98054                       (Unspecified)
system.ruby.network.routers11.all_counts       522761                       (Unspecified)
system.ruby.network.routers11.buffer_reads     11640914                       (Unspecified)
system.ruby.network.routers11.buffer_writes     11640914                       (Unspecified)
system.ruby.network.routers11.crossbar_activity     11640914                       (Unspecified)
system.ruby.network.routers11.detour_counts        98086                       (Unspecified)
system.ruby.network.routers11.regular_var            1                       (Unspecified)
system.ruby.network.routers11.risk_counts        98093                       (Unspecified)
system.ruby.network.routers11.sw_input_arbiter_activity     11720653                       (Unspecified)
system.ruby.network.routers11.sw_output_arbiter_activity     11640914                       (Unspecified)
system.ruby.network.routers12.Var_1                 3                       (Unspecified)
system.ruby.network.routers12.Var_2              2819                       (Unspecified)
system.ruby.network.routers12.Var_3              6873                       (Unspecified)
system.ruby.network.routers12.all_counts       518992                       (Unspecified)
system.ruby.network.routers12.buffer_reads      8272818                       (Unspecified)
system.ruby.network.routers12.buffer_writes      8272818                       (Unspecified)
system.ruby.network.routers12.crossbar_activity      8272818                       (Unspecified)
system.ruby.network.routers12.detour_counts         6934                       (Unspecified)
system.ruby.network.routers12.regular_var            0                       (Unspecified)
system.ruby.network.routers12.risk_counts         6935                       (Unspecified)
system.ruby.network.routers12.sw_input_arbiter_activity      8310852                       (Unspecified)
system.ruby.network.routers12.sw_output_arbiter_activity      8272818                       (Unspecified)
system.ruby.network.routers13.Var_1                 5                       (Unspecified)
system.ruby.network.routers13.Var_2              2786                       (Unspecified)
system.ruby.network.routers13.Var_3              9901                       (Unspecified)
system.ruby.network.routers13.all_counts       536959                       (Unspecified)
system.ruby.network.routers13.buffer_reads     11807028                       (Unspecified)
system.ruby.network.routers13.buffer_writes     11807028                       (Unspecified)
system.ruby.network.routers13.crossbar_activity     11807028                       (Unspecified)
system.ruby.network.routers13.detour_counts         9950                       (Unspecified)
system.ruby.network.routers13.regular_var            0                       (Unspecified)
system.ruby.network.routers13.risk_counts         9951                       (Unspecified)
system.ruby.network.routers13.sw_input_arbiter_activity     11893402                       (Unspecified)
system.ruby.network.routers13.sw_output_arbiter_activity     11807028                       (Unspecified)
system.ruby.network.routers14.Var_1                 4                       (Unspecified)
system.ruby.network.routers14.Var_2              2843                       (Unspecified)
system.ruby.network.routers14.Var_3              9924                       (Unspecified)
system.ruby.network.routers14.all_counts       537112                       (Unspecified)
system.ruby.network.routers14.buffer_reads     11800696                       (Unspecified)
system.ruby.network.routers14.buffer_writes     11800696                       (Unspecified)
system.ruby.network.routers14.crossbar_activity     11800695                       (Unspecified)
system.ruby.network.routers14.detour_counts         9994                       (Unspecified)
system.ruby.network.routers14.regular_var            1                       (Unspecified)
system.ruby.network.routers14.risk_counts         9996                       (Unspecified)
system.ruby.network.routers14.sw_input_arbiter_activity     11886898                       (Unspecified)
system.ruby.network.routers14.sw_output_arbiter_activity     11800695                       (Unspecified)
system.ruby.network.routers15.Var_1                 0                       (Unspecified)
system.ruby.network.routers15.Var_2              2849                       (Unspecified)
system.ruby.network.routers15.Var_3              6990                       (Unspecified)
system.ruby.network.routers15.all_counts       519190                       (Unspecified)
system.ruby.network.routers15.buffer_reads      8263428                       (Unspecified)
system.ruby.network.routers15.buffer_writes      8263428                       (Unspecified)
system.ruby.network.routers15.crossbar_activity      8263428                       (Unspecified)
system.ruby.network.routers15.detour_counts         7041                       (Unspecified)
system.ruby.network.routers15.regular_var            1                       (Unspecified)
system.ruby.network.routers15.risk_counts         7041                       (Unspecified)
system.ruby.network.routers15.sw_input_arbiter_activity      8302575                       (Unspecified)
system.ruby.network.routers15.sw_output_arbiter_activity      8263428                       (Unspecified)

---------- End Simulation Statistics   ----------
