
---------- Begin Simulation Statistics ----------
simSeconds                                   0.073074                       # Number of seconds simulated (Second)
simTicks                                  73074443000                       # Number of ticks simulated (Tick)
finalTick                                 73074443000                       # Number of ticks from beginning of simulation (restored from checkpoints and never reset) (Tick)
simFreq                                  1000000000000                       # The number of ticks per simulated second ((Tick/Second))
hostSeconds                                   4677.12                       # Real time elapsed on the host (Second)
hostTickRate                                 15623800                       # The number of ticks simulated per host second (ticks/s) ((Tick/Second))
hostMemory                                   42095444                       # Number of bytes of host memory used (Byte)
simInsts                                    432606615                       # Number of instructions simulated (Count)
simOps                                      831735126                       # Number of ops (including micro ops) simulated (Count)
hostInstRate                                    92494                       # Simulator instruction rate (inst/s) ((Count/Second))
hostOpRate                                     177830                       # Simulator op (including micro ops) rate (op/s) ((Count/Second))
system.clk_domain.clock                          1000                       # Clock period in ticks (Tick)
system.cpu0.numCycles                       146148887                       # Number of cpu cycles simulated (Cycle)
system.cpu0.numWorkItemsStarted                     0                       # Number of work items this cpu started (Count)
system.cpu0.numWorkItemsCompleted                   0                       # Number of work items this cpu completed (Count)
system.cpu0.instsAdded                       51866391                       # Number of instructions added to the IQ (excludes non-spec) (Count)
system.cpu0.nonSpecInstsAdded                    1218                       # Number of non-speculative instructions added to the IQ (Count)
system.cpu0.instsIssued                      51479659                       # Number of instructions issued (Count)
system.cpu0.squashedInstsIssued                  1878                       # Number of squashed instructions issued (Count)
system.cpu0.squashedInstsExamined             1435899                       # Number of squashed instructions iterated over during squash; mainly for profiling (Count)
system.cpu0.squashedOperandsExamined          2282086                       # Number of squashed operands that are examined and possibly removed from graph (Count)
system.cpu0.squashedNonSpecRemoved                101                       # Number of squashed non-spec instructions that were removed (Count)
system.cpu0.numIssuedDist::samples          144850572                       # Number of insts issued each cycle (Count)
system.cpu0.numIssuedDist::mean              0.355398                       # Number of insts issued each cycle (Count)
system.cpu0.numIssuedDist::stdev             1.104358                       # Number of insts issued each cycle (Count)
system.cpu0.numIssuedDist::underflows               0      0.00%      0.00% # Number of insts issued each cycle (Count)
system.cpu0.numIssuedDist::0                127912619     88.31%     88.31% # Number of insts issued each cycle (Count)
system.cpu0.numIssuedDist::1                  2779252      1.92%     90.23% # Number of insts issued each cycle (Count)
system.cpu0.numIssuedDist::2                  4213547      2.91%     93.13% # Number of insts issued each cycle (Count)
system.cpu0.numIssuedDist::3                  3826667      2.64%     95.78% # Number of insts issued each cycle (Count)
system.cpu0.numIssuedDist::4                  3326790      2.30%     98.07% # Number of insts issued each cycle (Count)
system.cpu0.numIssuedDist::5                  1689633      1.17%     99.24% # Number of insts issued each cycle (Count)
system.cpu0.numIssuedDist::6                   779749      0.54%     99.78% # Number of insts issued each cycle (Count)
system.cpu0.numIssuedDist::7                   219027      0.15%     99.93% # Number of insts issued each cycle (Count)
system.cpu0.numIssuedDist::8                   103288      0.07%    100.00% # Number of insts issued each cycle (Count)
system.cpu0.numIssuedDist::overflows                0      0.00%    100.00% # Number of insts issued each cycle (Count)
system.cpu0.numIssuedDist::min_value                0                       # Number of insts issued each cycle (Count)
system.cpu0.numIssuedDist::max_value                8                       # Number of insts issued each cycle (Count)
system.cpu0.numIssuedDist::total            144850572                       # Number of insts issued each cycle (Count)
system.cpu0.statFuBusy::No_OpClass                  0      0.00%      0.00% # attempts to use FU when none available (Count)
system.cpu0.statFuBusy::IntAlu                  45617     29.51%     29.51% # attempts to use FU when none available (Count)
system.cpu0.statFuBusy::IntMult                     0      0.00%     29.51% # attempts to use FU when none available (Count)
system.cpu0.statFuBusy::IntDiv                      0      0.00%     29.51% # attempts to use FU when none available (Count)
system.cpu0.statFuBusy::FloatAdd                    0      0.00%     29.51% # attempts to use FU when none available (Count)
system.cpu0.statFuBusy::FloatCmp                    0      0.00%     29.51% # attempts to use FU when none available (Count)
system.cpu0.statFuBusy::FloatCvt                    0      0.00%     29.51% # attempts to use FU when none available (Count)
system.cpu0.statFuBusy::FloatMult                   0      0.00%     29.51% # attempts to use FU when none available (Count)
system.cpu0.statFuBusy::FloatMultAcc                0      0.00%     29.51% # attempts to use FU when none available (Count)
system.cpu0.statFuBusy::FloatDiv                    0      0.00%     29.51% # attempts to use FU when none available (Count)
system.cpu0.statFuBusy::FloatMisc                   0      0.00%     29.51% # attempts to use FU when none available (Count)
system.cpu0.statFuBusy::FloatSqrt                   0      0.00%     29.51% # attempts to use FU when none available (Count)
system.cpu0.statFuBusy::SimdAdd                    12      0.01%     29.52% # attempts to use FU when none available (Count)
system.cpu0.statFuBusy::SimdAddAcc                  0      0.00%     29.52% # attempts to use FU when none available (Count)
system.cpu0.statFuBusy::SimdAlu                   116      0.08%     29.59% # attempts to use FU when none available (Count)
system.cpu0.statFuBusy::SimdCmp                     0      0.00%     29.59% # attempts to use FU when none available (Count)
system.cpu0.statFuBusy::SimdCvt                   227      0.15%     29.74% # attempts to use FU when none available (Count)
system.cpu0.statFuBusy::SimdMisc                   23      0.01%     29.76% # attempts to use FU when none available (Count)
system.cpu0.statFuBusy::SimdMult                    0      0.00%     29.76% # attempts to use FU when none available (Count)
system.cpu0.statFuBusy::SimdMultAcc                 0      0.00%     29.76% # attempts to use FU when none available (Count)
system.cpu0.statFuBusy::SimdShift                 175      0.11%     29.87% # attempts to use FU when none available (Count)
system.cpu0.statFuBusy::SimdShiftAcc                0      0.00%     29.87% # attempts to use FU when none available (Count)
system.cpu0.statFuBusy::SimdDiv                     0      0.00%     29.87% # attempts to use FU when none available (Count)
system.cpu0.statFuBusy::SimdSqrt                    0      0.00%     29.87% # attempts to use FU when none available (Count)
system.cpu0.statFuBusy::SimdFloatAdd                0      0.00%     29.87% # attempts to use FU when none available (Count)
system.cpu0.statFuBusy::SimdFloatAlu                0      0.00%     29.87% # attempts to use FU when none available (Count)
system.cpu0.statFuBusy::SimdFloatCmp                0      0.00%     29.87% # attempts to use FU when none available (Count)
system.cpu0.statFuBusy::SimdFloatCvt                0      0.00%     29.87% # attempts to use FU when none available (Count)
system.cpu0.statFuBusy::SimdFloatDiv                0      0.00%     29.87% # attempts to use FU when none available (Count)
system.cpu0.statFuBusy::SimdFloatMisc               0      0.00%     29.87% # attempts to use FU when none available (Count)
system.cpu0.statFuBusy::SimdFloatMult               0      0.00%     29.87% # attempts to use FU when none available (Count)
system.cpu0.statFuBusy::SimdFloatMultAcc            0      0.00%     29.87% # attempts to use FU when none available (Count)
system.cpu0.statFuBusy::SimdFloatSqrt               0      0.00%     29.87% # attempts to use FU when none available (Count)
system.cpu0.statFuBusy::SimdReduceAdd               0      0.00%     29.87% # attempts to use FU when none available (Count)
system.cpu0.statFuBusy::SimdReduceAlu               0      0.00%     29.87% # attempts to use FU when none available (Count)
system.cpu0.statFuBusy::SimdReduceCmp               0      0.00%     29.87% # attempts to use FU when none available (Count)
system.cpu0.statFuBusy::SimdFloatReduceAdd            0      0.00%     29.87% # attempts to use FU when none available (Count)
system.cpu0.statFuBusy::SimdFloatReduceCmp            0      0.00%     29.87% # attempts to use FU when none available (Count)
system.cpu0.statFuBusy::SimdAes                     0      0.00%     29.87% # attempts to use FU when none available (Count)
system.cpu0.statFuBusy::SimdAesMix                  0      0.00%     29.87% # attempts to use FU when none available (Count)
system.cpu0.statFuBusy::SimdSha1Hash                0      0.00%     29.87% # attempts to use FU when none available (Count)
system.cpu0.statFuBusy::SimdSha1Hash2               0      0.00%     29.87% # attempts to use FU when none available (Count)
system.cpu0.statFuBusy::SimdSha256Hash              0      0.00%     29.87% # attempts to use FU when none available (Count)
system.cpu0.statFuBusy::SimdSha256Hash2             0      0.00%     29.87% # attempts to use FU when none available (Count)
system.cpu0.statFuBusy::SimdShaSigma2               0      0.00%     29.87% # attempts to use FU when none available (Count)
system.cpu0.statFuBusy::SimdShaSigma3               0      0.00%     29.87% # attempts to use FU when none available (Count)
system.cpu0.statFuBusy::SimdPredAlu                 0      0.00%     29.87% # attempts to use FU when none available (Count)
system.cpu0.statFuBusy::MemRead                 97005     62.76%     92.62% # attempts to use FU when none available (Count)
system.cpu0.statFuBusy::MemWrite                10418      6.74%     99.36% # attempts to use FU when none available (Count)
system.cpu0.statFuBusy::FloatMemRead              672      0.43%     99.80% # attempts to use FU when none available (Count)
system.cpu0.statFuBusy::FloatMemWrite             310      0.20%    100.00% # attempts to use FU when none available (Count)
system.cpu0.statFuBusy::IprAccess                   0      0.00%    100.00% # attempts to use FU when none available (Count)
system.cpu0.statFuBusy::InstPrefetch                0      0.00%    100.00% # attempts to use FU when none available (Count)
system.cpu0.statIssuedInstType_0::No_OpClass      2168557      4.21%      4.21% # Number of instructions issued per FU type, per thread (Count)
system.cpu0.statIssuedInstType_0::IntAlu     33549896     65.17%     69.38% # Number of instructions issued per FU type, per thread (Count)
system.cpu0.statIssuedInstType_0::IntMult          233      0.00%     69.38% # Number of instructions issued per FU type, per thread (Count)
system.cpu0.statIssuedInstType_0::IntDiv        39676      0.08%     69.46% # Number of instructions issued per FU type, per thread (Count)
system.cpu0.statIssuedInstType_0::FloatAdd         9080      0.02%     69.48% # Number of instructions issued per FU type, per thread (Count)
system.cpu0.statIssuedInstType_0::FloatCmp            0      0.00%     69.48% # Number of instructions issued per FU type, per thread (Count)
system.cpu0.statIssuedInstType_0::FloatCvt         1591      0.00%     69.48% # Number of instructions issued per FU type, per thread (Count)
system.cpu0.statIssuedInstType_0::FloatMult            0      0.00%     69.48% # Number of instructions issued per FU type, per thread (Count)
system.cpu0.statIssuedInstType_0::FloatMultAcc            0      0.00%     69.48% # Number of instructions issued per FU type, per thread (Count)
system.cpu0.statIssuedInstType_0::FloatDiv            0      0.00%     69.48% # Number of instructions issued per FU type, per thread (Count)
system.cpu0.statIssuedInstType_0::FloatMisc            0      0.00%     69.48% # Number of instructions issued per FU type, per thread (Count)
system.cpu0.statIssuedInstType_0::FloatSqrt            0      0.00%     69.48% # Number of instructions issued per FU type, per thread (Count)
system.cpu0.statIssuedInstType_0::SimdAdd         7116      0.01%     69.50% # Number of instructions issued per FU type, per thread (Count)
system.cpu0.statIssuedInstType_0::SimdAddAcc            0      0.00%     69.50% # Number of instructions issued per FU type, per thread (Count)
system.cpu0.statIssuedInstType_0::SimdAlu        15380      0.03%     69.53% # Number of instructions issued per FU type, per thread (Count)
system.cpu0.statIssuedInstType_0::SimdCmp           12      0.00%     69.53% # Number of instructions issued per FU type, per thread (Count)
system.cpu0.statIssuedInstType_0::SimdCvt        15179      0.03%     69.56% # Number of instructions issued per FU type, per thread (Count)
system.cpu0.statIssuedInstType_0::SimdMisc        15268      0.03%     69.58% # Number of instructions issued per FU type, per thread (Count)
system.cpu0.statIssuedInstType_0::SimdMult            0      0.00%     69.58% # Number of instructions issued per FU type, per thread (Count)
system.cpu0.statIssuedInstType_0::SimdMultAcc            0      0.00%     69.58% # Number of instructions issued per FU type, per thread (Count)
system.cpu0.statIssuedInstType_0::SimdShift         2634      0.01%     69.59% # Number of instructions issued per FU type, per thread (Count)
system.cpu0.statIssuedInstType_0::SimdShiftAcc            0      0.00%     69.59% # Number of instructions issued per FU type, per thread (Count)
system.cpu0.statIssuedInstType_0::SimdDiv            0      0.00%     69.59% # Number of instructions issued per FU type, per thread (Count)
system.cpu0.statIssuedInstType_0::SimdSqrt            0      0.00%     69.59% # Number of instructions issued per FU type, per thread (Count)
system.cpu0.statIssuedInstType_0::SimdFloatAdd            0      0.00%     69.59% # Number of instructions issued per FU type, per thread (Count)
system.cpu0.statIssuedInstType_0::SimdFloatAlu            0      0.00%     69.59% # Number of instructions issued per FU type, per thread (Count)
system.cpu0.statIssuedInstType_0::SimdFloatCmp            0      0.00%     69.59% # Number of instructions issued per FU type, per thread (Count)
system.cpu0.statIssuedInstType_0::SimdFloatCvt            0      0.00%     69.59% # Number of instructions issued per FU type, per thread (Count)
system.cpu0.statIssuedInstType_0::SimdFloatDiv            0      0.00%     69.59% # Number of instructions issued per FU type, per thread (Count)
system.cpu0.statIssuedInstType_0::SimdFloatMisc            0      0.00%     69.59% # Number of instructions issued per FU type, per thread (Count)
system.cpu0.statIssuedInstType_0::SimdFloatMult            0      0.00%     69.59% # Number of instructions issued per FU type, per thread (Count)
system.cpu0.statIssuedInstType_0::SimdFloatMultAcc            0      0.00%     69.59% # Number of instructions issued per FU type, per thread (Count)
system.cpu0.statIssuedInstType_0::SimdFloatSqrt            0      0.00%     69.59% # Number of instructions issued per FU type, per thread (Count)
system.cpu0.statIssuedInstType_0::SimdReduceAdd            0      0.00%     69.59% # Number of instructions issued per FU type, per thread (Count)
system.cpu0.statIssuedInstType_0::SimdReduceAlu            0      0.00%     69.59% # Number of instructions issued per FU type, per thread (Count)
system.cpu0.statIssuedInstType_0::SimdReduceCmp            0      0.00%     69.59% # Number of instructions issued per FU type, per thread (Count)
system.cpu0.statIssuedInstType_0::SimdFloatReduceAdd            0      0.00%     69.59% # Number of instructions issued per FU type, per thread (Count)
system.cpu0.statIssuedInstType_0::SimdFloatReduceCmp            0      0.00%     69.59% # Number of instructions issued per FU type, per thread (Count)
system.cpu0.statIssuedInstType_0::SimdAes            0      0.00%     69.59% # Number of instructions issued per FU type, per thread (Count)
system.cpu0.statIssuedInstType_0::SimdAesMix            0      0.00%     69.59% # Number of instructions issued per FU type, per thread (Count)
system.cpu0.statIssuedInstType_0::SimdSha1Hash            0      0.00%     69.59% # Number of instructions issued per FU type, per thread (Count)
system.cpu0.statIssuedInstType_0::SimdSha1Hash2            0      0.00%     69.59% # Number of instructions issued per FU type, per thread (Count)
system.cpu0.statIssuedInstType_0::SimdSha256Hash            0      0.00%     69.59% # Number of instructions issued per FU type, per thread (Count)
system.cpu0.statIssuedInstType_0::SimdSha256Hash2            0      0.00%     69.59% # Number of instructions issued per FU type, per thread (Count)
system.cpu0.statIssuedInstType_0::SimdShaSigma2            0      0.00%     69.59% # Number of instructions issued per FU type, per thread (Count)
system.cpu0.statIssuedInstType_0::SimdShaSigma3            0      0.00%     69.59% # Number of instructions issued per FU type, per thread (Count)
system.cpu0.statIssuedInstType_0::SimdPredAlu            0      0.00%     69.59% # Number of instructions issued per FU type, per thread (Count)
system.cpu0.statIssuedInstType_0::MemRead      7936024     15.42%     85.01% # Number of instructions issued per FU type, per thread (Count)
system.cpu0.statIssuedInstType_0::MemWrite      7679837     14.92%     99.92% # Number of instructions issued per FU type, per thread (Count)
system.cpu0.statIssuedInstType_0::FloatMemRead        23046      0.04%     99.97% # Number of instructions issued per FU type, per thread (Count)
system.cpu0.statIssuedInstType_0::FloatMemWrite        16130      0.03%    100.00% # Number of instructions issued per FU type, per thread (Count)
system.cpu0.statIssuedInstType_0::IprAccess            0      0.00%    100.00% # Number of instructions issued per FU type, per thread (Count)
system.cpu0.statIssuedInstType_0::InstPrefetch            0      0.00%    100.00% # Number of instructions issued per FU type, per thread (Count)
system.cpu0.statIssuedInstType_0::total      51479659                       # Number of instructions issued per FU type, per thread (Count)
system.cpu0.issueRate                        0.352241                       # Inst issue rate ((Count/Cycle))
system.cpu0.fuBusy                             154575                       # FU busy when requested (Count)
system.cpu0.fuBusyRate                       0.003003                       # FU busy rate (busy events/executed inst) ((Count/Count))
system.cpu0.intInstQueueReads               247744059                       # Number of integer instruction queue reads (Count)
system.cpu0.intInstQueueWrites               53145616                       # Number of integer instruction queue writes (Count)
system.cpu0.intInstQueueWakeupAccesses       51313682                       # Number of integer instruction queue wakeup accesses (Count)
system.cpu0.fpInstQueueReads                   222284                       # Number of floating instruction queue reads (Count)
system.cpu0.fpInstQueueWrites                  158499                       # Number of floating instruction queue writes (Count)
system.cpu0.fpInstQueueWakeupAccesses          106159                       # Number of floating instruction queue wakeup accesses (Count)
system.cpu0.vecInstQueueReads                       0                       # Number of vector instruction queue reads (Count)
system.cpu0.vecInstQueueWrites                      0                       # Number of vector instruction queue writes (Count)
system.cpu0.vecInstQueueWakeupAccesses              0                       # Number of vector instruction queue wakeup accesses (Count)
system.cpu0.intAluAccesses                   49353886                       # Number of integer alu accesses (Count)
system.cpu0.fpAluAccesses                      111791                       # Number of floating point alu accesses (Count)
system.cpu0.vecAluAccesses                          0                       # Number of vector alu accesses (Count)
system.cpu0.numInsts                         51454831                       # Number of executed instructions (Count)
system.cpu0.numLoadInsts                      7953961                       # Number of load instructions executed (Count)
system.cpu0.numSquashedInsts                    24828                       # Number of squashed instructions skipped in execute (Count)
system.cpu0.numSwp                                  0                       # Number of swp insts executed (Count)
system.cpu0.numNop                                  0                       # Number of nop insts executed (Count)
system.cpu0.numRefs                          15647536                       # Number of memory reference insts executed (Count)
system.cpu0.numBranches                       4667218                       # Number of branches executed (Count)
system.cpu0.numStoreInsts                     7693575                       # Number of stores executed (Count)
system.cpu0.numRate                          0.352071                       # Inst execution rate ((Count/Cycle))
system.cpu0.timesIdled                           2533                       # Number of times that the entire CPU went into an idle state and unscheduled itself (Count)
system.cpu0.idleCycles                        1298315                       # Total number of cycles that the CPU has spent unscheduled due to idling (Cycle)
system.cpu0.committedInsts                   26237858                       # Number of Instructions Simulated (Count)
system.cpu0.committedOps                     50431710                       # Number of Ops (including micro ops) Simulated (Count)
system.cpu0.cpi                              5.570153                       # CPI: Cycles Per Instruction ((Cycle/Count))
system.cpu0.totalCpi                         5.570153                       # CPI: Total CPI of All Threads ((Cycle/Count))
system.cpu0.ipc                              0.179528                       # IPC: Instructions Per Cycle ((Count/Cycle))
system.cpu0.totalIpc                         0.179528                       # IPC: Total IPC of All Threads ((Count/Cycle))
system.cpu0.intRegfileReads                  67539141                       # Number of integer regfile reads (Count)
system.cpu0.intRegfileWrites                 34798548                       # Number of integer regfile writes (Count)
system.cpu0.fpRegfileReads                     144830                       # Number of floating regfile reads (Count)
system.cpu0.fpRegfileWrites                     81683                       # Number of floating regfile writes (Count)
system.cpu0.ccRegfileReads                    2929501                       # number of cc regfile reads (Count)
system.cpu0.ccRegfileWrites                   5600293                       # number of cc regfile writes (Count)
system.cpu0.miscRegfileReads                 22986995                       # number of misc regfile reads (Count)
system.cpu0.miscRegfileWrites                     882                       # number of misc regfile writes (Count)
system.cpu0.MemDepUnit__0.insertedLoads       7991996                       # Number of loads inserted to the mem dependence unit. (Count)
system.cpu0.MemDepUnit__0.insertedStores      7711090                       # Number of stores inserted to the mem dependence unit. (Count)
system.cpu0.MemDepUnit__0.conflictingLoads      1850471                       # Number of conflicting loads. (Count)
system.cpu0.MemDepUnit__0.conflictingStores        72519                       # Number of conflicting stores. (Count)
system.cpu0.MemDepUnit__1.insertedLoads             0                       # Number of loads inserted to the mem dependence unit. (Count)
system.cpu0.MemDepUnit__1.insertedStores            0                       # Number of stores inserted to the mem dependence unit. (Count)
system.cpu0.MemDepUnit__1.conflictingLoads            0                       # Number of conflicting loads. (Count)
system.cpu0.MemDepUnit__1.conflictingStores            0                       # Number of conflicting stores. (Count)
system.cpu0.MemDepUnit__2.insertedLoads             0                       # Number of loads inserted to the mem dependence unit. (Count)
system.cpu0.MemDepUnit__2.insertedStores            0                       # Number of stores inserted to the mem dependence unit. (Count)
system.cpu0.MemDepUnit__2.conflictingLoads            0                       # Number of conflicting loads. (Count)
system.cpu0.MemDepUnit__2.conflictingStores            0                       # Number of conflicting stores. (Count)
system.cpu0.MemDepUnit__3.insertedLoads             0                       # Number of loads inserted to the mem dependence unit. (Count)
system.cpu0.MemDepUnit__3.insertedStores            0                       # Number of stores inserted to the mem dependence unit. (Count)
system.cpu0.MemDepUnit__3.conflictingLoads            0                       # Number of conflicting loads. (Count)
system.cpu0.MemDepUnit__3.conflictingStores            0                       # Number of conflicting stores. (Count)
system.cpu0.branchPred.lookups                4779101                       # Number of BP lookups (Count)
system.cpu0.branchPred.condPredicted           530863                       # Number of conditional branches predicted (Count)
system.cpu0.branchPred.condIncorrect            14173                       # Number of conditional branches incorrect (Count)
system.cpu0.branchPred.BTBLookups             2407540                       # Number of BTB lookups (Count)
system.cpu0.branchPred.BTBUpdates                7186                       # Number of BTB updates (Count)
system.cpu0.branchPred.BTBHits                2403812                       # Number of BTB hits (Count)
system.cpu0.branchPred.BTBHitRatio           0.998452                       # BTB Hit Ratio (Ratio)
system.cpu0.branchPred.RASUsed                2051302                       # Number of times the RAS was used to get a target. (Count)
system.cpu0.branchPred.RASIncorrect                15                       # Number of incorrect RAS predictions. (Count)
system.cpu0.branchPred.indirectLookups         124425                       # Number of indirect predictor lookups. (Count)
system.cpu0.branchPred.indirectHits            117673                       # Number of indirect target hits. (Count)
system.cpu0.branchPred.indirectMisses            6752                       # Number of indirect misses. (Count)
system.cpu0.branchPred.indirectMispredicted         1438                       # Number of mispredicted indirect branches. (Count)
system.cpu0.commit.commitSquashedInsts        1427087                       # The number of squashed insts skipped by commit (Count)
system.cpu0.commit.commitNonSpecStalls           1117                       # The number of times commit has been forced to stall to communicate backwards (Count)
system.cpu0.commit.branchMispredicts            14462                       # The number of times a branch was mispredicted (Count)
system.cpu0.commit.numCommittedDist::samples    144661208                       # Number of insts commited each cycle (Count)
system.cpu0.commit.numCommittedDist::mean     0.348619                       # Number of insts commited each cycle (Count)
system.cpu0.commit.numCommittedDist::stdev     1.309488                       # Number of insts commited each cycle (Count)
system.cpu0.commit.numCommittedDist::underflows            0      0.00%      0.00% # Number of insts commited each cycle (Count)
system.cpu0.commit.numCommittedDist::0      130683957     90.34%     90.34% # Number of insts commited each cycle (Count)
system.cpu0.commit.numCommittedDist::1        3001068      2.07%     92.41% # Number of insts commited each cycle (Count)
system.cpu0.commit.numCommittedDist::2        2895746      2.00%     94.41% # Number of insts commited each cycle (Count)
system.cpu0.commit.numCommittedDist::3        3262352      2.26%     96.67% # Number of insts commited each cycle (Count)
system.cpu0.commit.numCommittedDist::4         601909      0.42%     97.09% # Number of insts commited each cycle (Count)
system.cpu0.commit.numCommittedDist::5         979179      0.68%     97.76% # Number of insts commited each cycle (Count)
system.cpu0.commit.numCommittedDist::6         314375      0.22%     97.98% # Number of insts commited each cycle (Count)
system.cpu0.commit.numCommittedDist::7         718663      0.50%     98.48% # Number of insts commited each cycle (Count)
system.cpu0.commit.numCommittedDist::8        2203959      1.52%    100.00% # Number of insts commited each cycle (Count)
system.cpu0.commit.numCommittedDist::overflows            0      0.00%    100.00% # Number of insts commited each cycle (Count)
system.cpu0.commit.numCommittedDist::min_value            0                       # Number of insts commited each cycle (Count)
system.cpu0.commit.numCommittedDist::max_value            8                       # Number of insts commited each cycle (Count)
system.cpu0.commit.numCommittedDist::total    144661208                       # Number of insts commited each cycle (Count)
system.cpu0.commit.instsCommitted            26237858                       # Number of instructions committed (Count)
system.cpu0.commit.opsCommitted              50431710                       # Number of ops (including micro ops) committed (Count)
system.cpu0.commit.memRefs                   15372517                       # Number of memory references committed (Count)
system.cpu0.commit.loads                      7790932                       # Number of loads committed (Count)
system.cpu0.commit.amos                             0                       # Number of atomic instructions committed (Count)
system.cpu0.commit.membars                        154                       # Number of memory barriers committed (Count)
system.cpu0.commit.branches                   4599881                       # Number of branches committed (Count)
system.cpu0.commit.vectorInstructions               0                       # Number of committed Vector instructions. (Count)
system.cpu0.commit.floating                     91727                       # Number of committed floating point instructions. (Count)
system.cpu0.commit.integer                   46564513                       # Number of committed integer instructions. (Count)
system.cpu0.commit.functionCalls              2021752                       # Number of function calls committed. (Count)
system.cpu0.commit.committedInstType_0::No_OpClass      2136339      4.24%      4.24% # Class of committed instruction (Count)
system.cpu0.commit.committedInstType_0::IntAlu     32829990     65.10%     69.33% # Class of committed instruction (Count)
system.cpu0.commit.committedInstType_0::IntMult          206      0.00%     69.33% # Class of committed instruction (Count)
system.cpu0.commit.committedInstType_0::IntDiv        37175      0.07%     69.41% # Class of committed instruction (Count)
system.cpu0.commit.committedInstType_0::FloatAdd         7594      0.02%     69.42% # Class of committed instruction (Count)
system.cpu0.commit.committedInstType_0::FloatCmp            0      0.00%     69.42% # Class of committed instruction (Count)
system.cpu0.commit.committedInstType_0::FloatCvt         1568      0.00%     69.43% # Class of committed instruction (Count)
system.cpu0.commit.committedInstType_0::FloatMult            0      0.00%     69.43% # Class of committed instruction (Count)
system.cpu0.commit.committedInstType_0::FloatMultAcc            0      0.00%     69.43% # Class of committed instruction (Count)
system.cpu0.commit.committedInstType_0::FloatDiv            0      0.00%     69.43% # Class of committed instruction (Count)
system.cpu0.commit.committedInstType_0::FloatMisc            0      0.00%     69.43% # Class of committed instruction (Count)
system.cpu0.commit.committedInstType_0::FloatSqrt            0      0.00%     69.43% # Class of committed instruction (Count)
system.cpu0.commit.committedInstType_0::SimdAdd         6370      0.01%     69.44% # Class of committed instruction (Count)
system.cpu0.commit.committedInstType_0::SimdAddAcc            0      0.00%     69.44% # Class of committed instruction (Count)
system.cpu0.commit.committedInstType_0::SimdAlu        12127      0.02%     69.46% # Class of committed instruction (Count)
system.cpu0.commit.committedInstType_0::SimdCmp           12      0.00%     69.46% # Class of committed instruction (Count)
system.cpu0.commit.committedInstType_0::SimdCvt        12724      0.03%     69.49% # Class of committed instruction (Count)
system.cpu0.commit.committedInstType_0::SimdMisc        13918      0.03%     69.52% # Class of committed instruction (Count)
system.cpu0.commit.committedInstType_0::SimdMult            0      0.00%     69.52% # Class of committed instruction (Count)
system.cpu0.commit.committedInstType_0::SimdMultAcc            0      0.00%     69.52% # Class of committed instruction (Count)
system.cpu0.commit.committedInstType_0::SimdShift         1170      0.00%     69.52% # Class of committed instruction (Count)
system.cpu0.commit.committedInstType_0::SimdShiftAcc            0      0.00%     69.52% # Class of committed instruction (Count)
system.cpu0.commit.committedInstType_0::SimdDiv            0      0.00%     69.52% # Class of committed instruction (Count)
system.cpu0.commit.committedInstType_0::SimdSqrt            0      0.00%     69.52% # Class of committed instruction (Count)
system.cpu0.commit.committedInstType_0::SimdFloatAdd            0      0.00%     69.52% # Class of committed instruction (Count)
system.cpu0.commit.committedInstType_0::SimdFloatAlu            0      0.00%     69.52% # Class of committed instruction (Count)
system.cpu0.commit.committedInstType_0::SimdFloatCmp            0      0.00%     69.52% # Class of committed instruction (Count)
system.cpu0.commit.committedInstType_0::SimdFloatCvt            0      0.00%     69.52% # Class of committed instruction (Count)
system.cpu0.commit.committedInstType_0::SimdFloatDiv            0      0.00%     69.52% # Class of committed instruction (Count)
system.cpu0.commit.committedInstType_0::SimdFloatMisc            0      0.00%     69.52% # Class of committed instruction (Count)
system.cpu0.commit.committedInstType_0::SimdFloatMult            0      0.00%     69.52% # Class of committed instruction (Count)
system.cpu0.commit.committedInstType_0::SimdFloatMultAcc            0      0.00%     69.52% # Class of committed instruction (Count)
system.cpu0.commit.committedInstType_0::SimdFloatSqrt            0      0.00%     69.52% # Class of committed instruction (Count)
system.cpu0.commit.committedInstType_0::SimdReduceAdd            0      0.00%     69.52% # Class of committed instruction (Count)
system.cpu0.commit.committedInstType_0::SimdReduceAlu            0      0.00%     69.52% # Class of committed instruction (Count)
system.cpu0.commit.committedInstType_0::SimdReduceCmp            0      0.00%     69.52% # Class of committed instruction (Count)
system.cpu0.commit.committedInstType_0::SimdFloatReduceAdd            0      0.00%     69.52% # Class of committed instruction (Count)
system.cpu0.commit.committedInstType_0::SimdFloatReduceCmp            0      0.00%     69.52% # Class of committed instruction (Count)
system.cpu0.commit.committedInstType_0::SimdAes            0      0.00%     69.52% # Class of committed instruction (Count)
system.cpu0.commit.committedInstType_0::SimdAesMix            0      0.00%     69.52% # Class of committed instruction (Count)
system.cpu0.commit.committedInstType_0::SimdSha1Hash            0      0.00%     69.52% # Class of committed instruction (Count)
system.cpu0.commit.committedInstType_0::SimdSha1Hash2            0      0.00%     69.52% # Class of committed instruction (Count)
system.cpu0.commit.committedInstType_0::SimdSha256Hash            0      0.00%     69.52% # Class of committed instruction (Count)
system.cpu0.commit.committedInstType_0::SimdSha256Hash2            0      0.00%     69.52% # Class of committed instruction (Count)
system.cpu0.commit.committedInstType_0::SimdShaSigma2            0      0.00%     69.52% # Class of committed instruction (Count)
system.cpu0.commit.committedInstType_0::SimdShaSigma3            0      0.00%     69.52% # Class of committed instruction (Count)
system.cpu0.commit.committedInstType_0::SimdPredAlu            0      0.00%     69.52% # Class of committed instruction (Count)
system.cpu0.commit.committedInstType_0::MemRead      7774256     15.42%     84.93% # Class of committed instruction (Count)
system.cpu0.commit.committedInstType_0::MemWrite      7566340     15.00%     99.94% # Class of committed instruction (Count)
system.cpu0.commit.committedInstType_0::FloatMemRead        16676      0.03%     99.97% # Class of committed instruction (Count)
system.cpu0.commit.committedInstType_0::FloatMemWrite        15245      0.03%    100.00% # Class of committed instruction (Count)
system.cpu0.commit.committedInstType_0::IprAccess            0      0.00%    100.00% # Class of committed instruction (Count)
system.cpu0.commit.committedInstType_0::InstPrefetch            0      0.00%    100.00% # Class of committed instruction (Count)
system.cpu0.commit.committedInstType_0::total     50431710                       # Class of committed instruction (Count)
system.cpu0.commit.commitEligibleSamples      2203959                       # number cycles where commit BW limit reached (Cycle)
system.cpu0.decode.idleCycles                 1925970                       # Number of cycles decode is idle (Cycle)
system.cpu0.decode.blockedCycles            136237102                       # Number of cycles decode is blocked (Cycle)
system.cpu0.decode.runCycles                  2989519                       # Number of cycles decode is running (Cycle)
system.cpu0.decode.unblockCycles              3680136                       # Number of cycles decode is unblocking (Cycle)
system.cpu0.decode.squashCycles                 17845                       # Number of cycles decode is squashing (Cycle)
system.cpu0.decode.branchResolved             2386373                       # Number of times decode resolved a branch (Count)
system.cpu0.decode.branchMispred                 1393                       # Number of times decode detected a branch misprediction (Count)
system.cpu0.decode.decodedInsts              52050992                       # Number of instructions handled by decode (Count)
system.cpu0.decode.squashedInsts                 7056                       # Number of squashed instructions handled by decode (Count)
system.cpu0.fetch.icacheStallCycles           5114301                       # Number of cycles fetch is stalled on an Icache miss (Cycle)
system.cpu0.fetch.insts                      27334165                       # Number of instructions fetch has processed (Count)
system.cpu0.fetch.branches                    4779101                       # Number of branches that fetch encountered (Count)
system.cpu0.fetch.predictedBranches           4572787                       # Number of branches that fetch has predicted taken (Count)
system.cpu0.fetch.cycles                    139506083                       # Number of cycles fetch has run and was not squashing or blocked (Cycle)
system.cpu0.fetch.squashCycles                  38412                       # Number of cycles fetch has spent squashing (Cycle)
system.cpu0.fetch.miscStallCycles                9142                       # Number of cycles fetch has spent waiting on interrupts, or bad addresses, or out of MSHRs (Cycle)
system.cpu0.fetch.pendingTrapStallCycles        11311                       # Number of stall cycles due to pending traps (Cycle)
system.cpu0.fetch.icacheWaitRetryStallCycles       190529                       # Number of stall cycles due to full MSHR (Cycle)
system.cpu0.fetch.cacheLines                  4873835                       # Number of cache lines fetched (Count)
system.cpu0.fetch.icacheSquashes                 3749                       # Number of outstanding Icache misses that were squashed (Count)
system.cpu0.fetch.nisnDist::samples         144850572                       # Number of instructions fetched each cycle (Total) (Count)
system.cpu0.fetch.nisnDist::mean             0.361860                       # Number of instructions fetched each cycle (Total) (Count)
system.cpu0.fetch.nisnDist::stdev            1.526482                       # Number of instructions fetched each cycle (Total) (Count)
system.cpu0.fetch.nisnDist::underflows              0      0.00%      0.00% # Number of instructions fetched each cycle (Total) (Count)
system.cpu0.fetch.nisnDist::0               135828940     93.77%     93.77% # Number of instructions fetched each cycle (Total) (Count)
system.cpu0.fetch.nisnDist::1                  572651      0.40%     94.17% # Number of instructions fetched each cycle (Total) (Count)
system.cpu0.fetch.nisnDist::2                  687648      0.47%     94.64% # Number of instructions fetched each cycle (Total) (Count)
system.cpu0.fetch.nisnDist::3                  689330      0.48%     95.12% # Number of instructions fetched each cycle (Total) (Count)
system.cpu0.fetch.nisnDist::4                  934403      0.65%     95.76% # Number of instructions fetched each cycle (Total) (Count)
system.cpu0.fetch.nisnDist::5                  592102      0.41%     96.17% # Number of instructions fetched each cycle (Total) (Count)
system.cpu0.fetch.nisnDist::6                 1116920      0.77%     96.94% # Number of instructions fetched each cycle (Total) (Count)
system.cpu0.fetch.nisnDist::7                  428548      0.30%     97.24% # Number of instructions fetched each cycle (Total) (Count)
system.cpu0.fetch.nisnDist::8                 4000030      2.76%    100.00% # Number of instructions fetched each cycle (Total) (Count)
system.cpu0.fetch.nisnDist::overflows               0      0.00%    100.00% # Number of instructions fetched each cycle (Total) (Count)
system.cpu0.fetch.nisnDist::min_value               0                       # Number of instructions fetched each cycle (Total) (Count)
system.cpu0.fetch.nisnDist::max_value               8                       # Number of instructions fetched each cycle (Total) (Count)
system.cpu0.fetch.nisnDist::total           144850572                       # Number of instructions fetched each cycle (Total) (Count)
system.cpu0.fetch.branchRate                 0.032700                       # Number of branch fetches per cycle (Ratio)
system.cpu0.fetch.rate                       0.187030                       # Number of inst fetches per cycle ((Count/Cycle))
system.cpu0.iew.idleCycles                          0                       # Number of cycles IEW is idle (Cycle)
system.cpu0.iew.squashCycles                    17845                       # Number of cycles IEW is squashing (Cycle)
system.cpu0.iew.blockCycles                   5852138                       # Number of cycles IEW is blocking (Cycle)
system.cpu0.iew.unblockCycles                  118260                       # Number of cycles IEW is unblocking (Cycle)
system.cpu0.iew.dispatchedInsts              51867609                       # Number of instructions dispatched to IQ (Count)
system.cpu0.iew.dispSquashedInsts                 813                       # Number of squashed instructions skipped by dispatch (Count)
system.cpu0.iew.dispLoadInsts                 7991996                       # Number of dispatched load instructions (Count)
system.cpu0.iew.dispStoreInsts                7711090                       # Number of dispatched store instructions (Count)
system.cpu0.iew.dispNonSpecInsts                 1007                       # Number of dispatched non-speculative instructions (Count)
system.cpu0.iew.iqFullEvents                    10364                       # Number of times the IQ has become full, causing a stall (Count)
system.cpu0.iew.lsqFullEvents                  101440                       # Number of times the LSQ has become full, causing a stall (Count)
system.cpu0.iew.memOrderViolationEvents           640                       # Number of memory order violations (Count)
system.cpu0.iew.predictedTakenIncorrect          5813                       # Number of branches that were predicted taken incorrectly (Count)
system.cpu0.iew.predictedNotTakenIncorrect        10826                       # Number of branches that were predicted not taken incorrectly (Count)
system.cpu0.iew.branchMispredicts               16639                       # Number of branch mispredicts detected at execute (Count)
system.cpu0.iew.instsToCommit                51440296                       # Cumulative count of insts sent to commit (Count)
system.cpu0.iew.writebackCount               51419841                       # Cumulative count of insts written-back (Count)
system.cpu0.iew.producerInst                 29578739                       # Number of instructions producing a value (Count)
system.cpu0.iew.consumerInst                 53517380                       # Number of instructions consuming a value (Count)
system.cpu0.iew.wbRate                       0.351832                       # Insts written-back per cycle ((Count/Cycle))
system.cpu0.iew.wbFanout                     0.552694                       # Average fanout of values written-back ((Count/Count))
system.cpu0.interrupts.clk_domain.clock          8000                       # Clock period in ticks (Tick)
system.cpu0.lsq0.forwLoads                    6348123                       # Number of loads that had data forwarded from stores (Count)
system.cpu0.lsq0.squashedLoads                 201064                       # Number of loads squashed (Count)
system.cpu0.lsq0.ignoredResponses                 706                       # Number of memory responses ignored because the instruction is squashed (Count)
system.cpu0.lsq0.memOrderViolation                640                       # Number of memory ordering violations (Count)
system.cpu0.lsq0.squashedStores                129505                       # Number of stores squashed (Count)
system.cpu0.lsq0.rescheduledLoads                  26                       # Number of loads that were rescheduled (Count)
system.cpu0.lsq0.blockedByCache                  1588                       # Number of times an access to memory failed due to the cache being blocked (Count)
system.cpu0.lsq0.loadToUse::samples           7790932                       # Distribution of cycle latency between the first time a load is issued and its completion (Unspecified)
system.cpu0.lsq0.loadToUse::mean             5.951360                       # Distribution of cycle latency between the first time a load is issued and its completion (Unspecified)
system.cpu0.lsq0.loadToUse::stdev           54.616093                       # Distribution of cycle latency between the first time a load is issued and its completion (Unspecified)
system.cpu0.lsq0.loadToUse::0-9               7748094     99.45%     99.45% # Distribution of cycle latency between the first time a load is issued and its completion (Unspecified)
system.cpu0.lsq0.loadToUse::10-19                  43      0.00%     99.45% # Distribution of cycle latency between the first time a load is issued and its completion (Unspecified)
system.cpu0.lsq0.loadToUse::20-29                  43      0.00%     99.45% # Distribution of cycle latency between the first time a load is issued and its completion (Unspecified)
system.cpu0.lsq0.loadToUse::30-39                  39      0.00%     99.45% # Distribution of cycle latency between the first time a load is issued and its completion (Unspecified)
system.cpu0.lsq0.loadToUse::40-49                  59      0.00%     99.45% # Distribution of cycle latency between the first time a load is issued and its completion (Unspecified)
system.cpu0.lsq0.loadToUse::50-59                  99      0.00%     99.45% # Distribution of cycle latency between the first time a load is issued and its completion (Unspecified)
system.cpu0.lsq0.loadToUse::60-69                  37      0.00%     99.45% # Distribution of cycle latency between the first time a load is issued and its completion (Unspecified)
system.cpu0.lsq0.loadToUse::70-79                  31      0.00%     99.45% # Distribution of cycle latency between the first time a load is issued and its completion (Unspecified)
system.cpu0.lsq0.loadToUse::80-89                  55      0.00%     99.46% # Distribution of cycle latency between the first time a load is issued and its completion (Unspecified)
system.cpu0.lsq0.loadToUse::90-99                  26      0.00%     99.46% # Distribution of cycle latency between the first time a load is issued and its completion (Unspecified)
system.cpu0.lsq0.loadToUse::100-109                26      0.00%     99.46% # Distribution of cycle latency between the first time a load is issued and its completion (Unspecified)
system.cpu0.lsq0.loadToUse::110-119                22      0.00%     99.46% # Distribution of cycle latency between the first time a load is issued and its completion (Unspecified)
system.cpu0.lsq0.loadToUse::120-129                34      0.00%     99.46% # Distribution of cycle latency between the first time a load is issued and its completion (Unspecified)
system.cpu0.lsq0.loadToUse::130-139                18      0.00%     99.46% # Distribution of cycle latency between the first time a load is issued and its completion (Unspecified)
system.cpu0.lsq0.loadToUse::140-149                18      0.00%     99.46% # Distribution of cycle latency between the first time a load is issued and its completion (Unspecified)
system.cpu0.lsq0.loadToUse::150-159                34      0.00%     99.46% # Distribution of cycle latency between the first time a load is issued and its completion (Unspecified)
system.cpu0.lsq0.loadToUse::160-169                30      0.00%     99.46% # Distribution of cycle latency between the first time a load is issued and its completion (Unspecified)
system.cpu0.lsq0.loadToUse::170-179               103      0.00%     99.46% # Distribution of cycle latency between the first time a load is issued and its completion (Unspecified)
system.cpu0.lsq0.loadToUse::180-189               589      0.01%     99.47% # Distribution of cycle latency between the first time a load is issued and its completion (Unspecified)
system.cpu0.lsq0.loadToUse::190-199                21      0.00%     99.47% # Distribution of cycle latency between the first time a load is issued and its completion (Unspecified)
system.cpu0.lsq0.loadToUse::200-209                26      0.00%     99.47% # Distribution of cycle latency between the first time a load is issued and its completion (Unspecified)
system.cpu0.lsq0.loadToUse::210-219                51      0.00%     99.47% # Distribution of cycle latency between the first time a load is issued and its completion (Unspecified)
system.cpu0.lsq0.loadToUse::220-229                59      0.00%     99.47% # Distribution of cycle latency between the first time a load is issued and its completion (Unspecified)
system.cpu0.lsq0.loadToUse::230-239               179      0.00%     99.47% # Distribution of cycle latency between the first time a load is issued and its completion (Unspecified)
system.cpu0.lsq0.loadToUse::240-249               983      0.01%     99.48% # Distribution of cycle latency between the first time a load is issued and its completion (Unspecified)
system.cpu0.lsq0.loadToUse::250-259                19      0.00%     99.48% # Distribution of cycle latency between the first time a load is issued and its completion (Unspecified)
system.cpu0.lsq0.loadToUse::260-269                34      0.00%     99.48% # Distribution of cycle latency between the first time a load is issued and its completion (Unspecified)
system.cpu0.lsq0.loadToUse::270-279                64      0.00%     99.49% # Distribution of cycle latency between the first time a load is issued and its completion (Unspecified)
system.cpu0.lsq0.loadToUse::280-289                77      0.00%     99.49% # Distribution of cycle latency between the first time a load is issued and its completion (Unspecified)
system.cpu0.lsq0.loadToUse::290-299               239      0.00%     99.49% # Distribution of cycle latency between the first time a load is issued and its completion (Unspecified)
system.cpu0.lsq0.loadToUse::overflows           39780      0.51%    100.00% # Distribution of cycle latency between the first time a load is issued and its completion (Unspecified)
system.cpu0.lsq0.loadToUse::min_value               2                       # Distribution of cycle latency between the first time a load is issued and its completion (Unspecified)
system.cpu0.lsq0.loadToUse::max_value            2514                       # Distribution of cycle latency between the first time a load is issued and its completion (Unspecified)
system.cpu0.lsq0.loadToUse::total             7790932                       # Distribution of cycle latency between the first time a load is issued and its completion (Unspecified)
system.cpu0.mmu.dtb.rdAccesses                7949677                       # TLB accesses on read requests (Count)
system.cpu0.mmu.dtb.wrAccesses                7693606                       # TLB accesses on write requests (Count)
system.cpu0.mmu.dtb.rdMisses                     3478                       # TLB misses on read requests (Count)
system.cpu0.mmu.dtb.wrMisses                    14632                       # TLB misses on write requests (Count)
system.cpu0.mmu.dtb.walker.power_state.pwrStateResidencyTicks::UNDEFINED  73074443000                       # Cumulative time (in ticks) in various power states (Tick)
system.cpu0.mmu.itb.rdAccesses                      0                       # TLB accesses on read requests (Count)
system.cpu0.mmu.itb.wrAccesses                4875555                       # TLB accesses on write requests (Count)
system.cpu0.mmu.itb.rdMisses                        0                       # TLB misses on read requests (Count)
system.cpu0.mmu.itb.wrMisses                     2424                       # TLB misses on write requests (Count)
system.cpu0.mmu.itb.walker.power_state.pwrStateResidencyTicks::UNDEFINED  73074443000                       # Cumulative time (in ticks) in various power states (Tick)
system.cpu0.power_state.pwrStateResidencyTicks::ON  73074443000                       # Cumulative time (in ticks) in various power states (Tick)
system.cpu0.rename.squashCycles                 17845                       # Number of cycles rename is squashing (Cycle)
system.cpu0.rename.idleCycles                 3322002                       # Number of cycles rename is idle (Cycle)
system.cpu0.rename.blockCycles                6590161                       # Number of cycles rename is blocking (Cycle)
system.cpu0.rename.serializeStallCycles         20919                       # count of cycles rename stalled for serializing inst (Cycle)
system.cpu0.rename.runCycles                  5263861                       # Number of cycles rename is running (Cycle)
system.cpu0.rename.unblockCycles            129635784                       # Number of cycles rename is unblocking (Cycle)
system.cpu0.rename.renamedInsts              51965257                       # Number of instructions processed by rename (Count)
system.cpu0.rename.ROBFullEvents                31123                       # Number of times rename has blocked due to ROB full (Count)
system.cpu0.rename.IQFullEvents                439188                       # Number of times rename has blocked due to IQ full (Count)
system.cpu0.rename.LQFullEvents                131959                       # Number of times rename has blocked due to LQ full (Count)
system.cpu0.rename.SQFullEvents             128464625                       # Number of times rename has blocked due to SQ full (Count)
system.cpu0.rename.fullRegistersEvents           1347                       # Number of times there has been no free registers (Count)
system.cpu0.rename.renamedOperands           50660697                       # Number of destination operands rename has renamed (Count)
system.cpu0.rename.lookups                  125612853                       # Number of register rename lookups that rename has made (Count)
system.cpu0.rename.intLookups                68505677                       # Number of integer rename lookups (Count)
system.cpu0.rename.fpLookups                   188580                       # Number of floating rename lookups (Count)
system.cpu0.rename.committedMaps             48146570                       # Number of HB maps that are committed (Count)
system.cpu0.rename.undoneMaps                 2514127                       # Number of HB maps that are undone due to squashing (Count)
system.cpu0.rename.serializing                    964                       # count of serializing insts renamed (Count)
system.cpu0.rename.tempSerializing                952                       # count of temporary serializing insts renamed (Count)
system.cpu0.rename.skidInsts                 19021067                       # count of insts added to the skid buffer (Count)
system.cpu0.rob.reads                       194278645                       # The number of ROB reads (Count)
system.cpu0.rob.writes                      103907182                       # The number of ROB writes (Count)
system.cpu0.thread_0.numInsts                26237858                       # Number of Instructions committed (Count)
system.cpu0.thread_0.numOps                  50431710                       # Number of Ops committed (Count)
system.cpu0.thread_0.numMemRefs                     0                       # Number of Memory References (Count)
system.cpu0.workload.numSyscalls                   77                       # Number of system calls (Count)
system.cpu1.numCycles                       146148887                       # Number of cpu cycles simulated (Cycle)
system.cpu1.numWorkItemsStarted                     0                       # Number of work items this cpu started (Count)
system.cpu1.numWorkItemsCompleted                   0                       # Number of work items this cpu completed (Count)
system.cpu1.instsAdded                       53704891                       # Number of instructions added to the IQ (excludes non-spec) (Count)
system.cpu1.nonSpecInstsAdded                    1213                       # Number of non-speculative instructions added to the IQ (Count)
system.cpu1.instsIssued                      53317731                       # Number of instructions issued (Count)
system.cpu1.squashedInstsIssued                  1867                       # Number of squashed instructions issued (Count)
system.cpu1.squashedInstsExamined             1454720                       # Number of squashed instructions iterated over during squash; mainly for profiling (Count)
system.cpu1.squashedOperandsExamined          2284975                       # Number of squashed operands that are examined and possibly removed from graph (Count)
system.cpu1.squashedNonSpecRemoved                 96                       # Number of squashed non-spec instructions that were removed (Count)
system.cpu1.numIssuedDist::samples          144904497                       # Number of insts issued each cycle (Count)
system.cpu1.numIssuedDist::mean              0.367951                       # Number of insts issued each cycle (Count)
system.cpu1.numIssuedDist::stdev             1.121187                       # Number of insts issued each cycle (Count)
system.cpu1.numIssuedDist::underflows               0      0.00%      0.00% # Number of insts issued each cycle (Count)
system.cpu1.numIssuedDist::0                127353813     87.89%     87.89% # Number of insts issued each cycle (Count)
system.cpu1.numIssuedDist::1                  2879426      1.99%     89.88% # Number of insts issued each cycle (Count)
system.cpu1.numIssuedDist::2                  4368971      3.02%     92.89% # Number of insts issued each cycle (Count)
system.cpu1.numIssuedDist::3                  3966722      2.74%     95.63% # Number of insts issued each cycle (Count)
system.cpu1.numIssuedDist::4                  3449533      2.38%     98.01% # Number of insts issued each cycle (Count)
system.cpu1.numIssuedDist::5                  1749702      1.21%     99.22% # Number of insts issued each cycle (Count)
system.cpu1.numIssuedDist::6                   806211      0.56%     99.77% # Number of insts issued each cycle (Count)
system.cpu1.numIssuedDist::7                   224663      0.16%     99.93% # Number of insts issued each cycle (Count)
system.cpu1.numIssuedDist::8                   105456      0.07%    100.00% # Number of insts issued each cycle (Count)
system.cpu1.numIssuedDist::overflows                0      0.00%    100.00% # Number of insts issued each cycle (Count)
system.cpu1.numIssuedDist::min_value                0                       # Number of insts issued each cycle (Count)
system.cpu1.numIssuedDist::max_value                8                       # Number of insts issued each cycle (Count)
system.cpu1.numIssuedDist::total            144904497                       # Number of insts issued each cycle (Count)
system.cpu1.statFuBusy::No_OpClass                  0      0.00%      0.00% # attempts to use FU when none available (Count)
system.cpu1.statFuBusy::IntAlu                  45619     28.90%     28.90% # attempts to use FU when none available (Count)
system.cpu1.statFuBusy::IntMult                     0      0.00%     28.90% # attempts to use FU when none available (Count)
system.cpu1.statFuBusy::IntDiv                      0      0.00%     28.90% # attempts to use FU when none available (Count)
system.cpu1.statFuBusy::FloatAdd                    0      0.00%     28.90% # attempts to use FU when none available (Count)
system.cpu1.statFuBusy::FloatCmp                    0      0.00%     28.90% # attempts to use FU when none available (Count)
system.cpu1.statFuBusy::FloatCvt                    0      0.00%     28.90% # attempts to use FU when none available (Count)
system.cpu1.statFuBusy::FloatMult                   0      0.00%     28.90% # attempts to use FU when none available (Count)
system.cpu1.statFuBusy::FloatMultAcc                0      0.00%     28.90% # attempts to use FU when none available (Count)
system.cpu1.statFuBusy::FloatDiv                    0      0.00%     28.90% # attempts to use FU when none available (Count)
system.cpu1.statFuBusy::FloatMisc                   0      0.00%     28.90% # attempts to use FU when none available (Count)
system.cpu1.statFuBusy::FloatSqrt                   0      0.00%     28.90% # attempts to use FU when none available (Count)
system.cpu1.statFuBusy::SimdAdd                    12      0.01%     28.91% # attempts to use FU when none available (Count)
system.cpu1.statFuBusy::SimdAddAcc                  0      0.00%     28.91% # attempts to use FU when none available (Count)
system.cpu1.statFuBusy::SimdAlu                   116      0.07%     28.98% # attempts to use FU when none available (Count)
system.cpu1.statFuBusy::SimdCmp                     0      0.00%     28.98% # attempts to use FU when none available (Count)
system.cpu1.statFuBusy::SimdCvt                   249      0.16%     29.14% # attempts to use FU when none available (Count)
system.cpu1.statFuBusy::SimdMisc                   23      0.01%     29.15% # attempts to use FU when none available (Count)
system.cpu1.statFuBusy::SimdMult                    0      0.00%     29.15% # attempts to use FU when none available (Count)
system.cpu1.statFuBusy::SimdMultAcc                 0      0.00%     29.15% # attempts to use FU when none available (Count)
system.cpu1.statFuBusy::SimdShift                 179      0.11%     29.27% # attempts to use FU when none available (Count)
system.cpu1.statFuBusy::SimdShiftAcc                0      0.00%     29.27% # attempts to use FU when none available (Count)
system.cpu1.statFuBusy::SimdDiv                     0      0.00%     29.27% # attempts to use FU when none available (Count)
system.cpu1.statFuBusy::SimdSqrt                    0      0.00%     29.27% # attempts to use FU when none available (Count)
system.cpu1.statFuBusy::SimdFloatAdd                0      0.00%     29.27% # attempts to use FU when none available (Count)
system.cpu1.statFuBusy::SimdFloatAlu                0      0.00%     29.27% # attempts to use FU when none available (Count)
system.cpu1.statFuBusy::SimdFloatCmp                0      0.00%     29.27% # attempts to use FU when none available (Count)
system.cpu1.statFuBusy::SimdFloatCvt                0      0.00%     29.27% # attempts to use FU when none available (Count)
system.cpu1.statFuBusy::SimdFloatDiv                0      0.00%     29.27% # attempts to use FU when none available (Count)
system.cpu1.statFuBusy::SimdFloatMisc               0      0.00%     29.27% # attempts to use FU when none available (Count)
system.cpu1.statFuBusy::SimdFloatMult               0      0.00%     29.27% # attempts to use FU when none available (Count)
system.cpu1.statFuBusy::SimdFloatMultAcc            0      0.00%     29.27% # attempts to use FU when none available (Count)
system.cpu1.statFuBusy::SimdFloatSqrt               0      0.00%     29.27% # attempts to use FU when none available (Count)
system.cpu1.statFuBusy::SimdReduceAdd               0      0.00%     29.27% # attempts to use FU when none available (Count)
system.cpu1.statFuBusy::SimdReduceAlu               0      0.00%     29.27% # attempts to use FU when none available (Count)
system.cpu1.statFuBusy::SimdReduceCmp               0      0.00%     29.27% # attempts to use FU when none available (Count)
system.cpu1.statFuBusy::SimdFloatReduceAdd            0      0.00%     29.27% # attempts to use FU when none available (Count)
system.cpu1.statFuBusy::SimdFloatReduceCmp            0      0.00%     29.27% # attempts to use FU when none available (Count)
system.cpu1.statFuBusy::SimdAes                     0      0.00%     29.27% # attempts to use FU when none available (Count)
system.cpu1.statFuBusy::SimdAesMix                  0      0.00%     29.27% # attempts to use FU when none available (Count)
system.cpu1.statFuBusy::SimdSha1Hash                0      0.00%     29.27% # attempts to use FU when none available (Count)
system.cpu1.statFuBusy::SimdSha1Hash2               0      0.00%     29.27% # attempts to use FU when none available (Count)
system.cpu1.statFuBusy::SimdSha256Hash              0      0.00%     29.27% # attempts to use FU when none available (Count)
system.cpu1.statFuBusy::SimdSha256Hash2             0      0.00%     29.27% # attempts to use FU when none available (Count)
system.cpu1.statFuBusy::SimdShaSigma2               0      0.00%     29.27% # attempts to use FU when none available (Count)
system.cpu1.statFuBusy::SimdShaSigma3               0      0.00%     29.27% # attempts to use FU when none available (Count)
system.cpu1.statFuBusy::SimdPredAlu                 0      0.00%     29.27% # attempts to use FU when none available (Count)
system.cpu1.statFuBusy::MemRead                100249     63.51%     92.78% # attempts to use FU when none available (Count)
system.cpu1.statFuBusy::MemWrite                10418      6.60%     99.38% # attempts to use FU when none available (Count)
system.cpu1.statFuBusy::FloatMemRead              681      0.43%     99.81% # attempts to use FU when none available (Count)
system.cpu1.statFuBusy::FloatMemWrite             305      0.19%    100.00% # attempts to use FU when none available (Count)
system.cpu1.statFuBusy::IprAccess                   0      0.00%    100.00% # attempts to use FU when none available (Count)
system.cpu1.statFuBusy::InstPrefetch                0      0.00%    100.00% # attempts to use FU when none available (Count)
system.cpu1.statIssuedInstType_0::No_OpClass      2252248      4.22%      4.22% # Number of instructions issued per FU type, per thread (Count)
system.cpu1.statIssuedInstType_0::IntAlu     34726977     65.13%     69.36% # Number of instructions issued per FU type, per thread (Count)
system.cpu1.statIssuedInstType_0::IntMult          234      0.00%     69.36% # Number of instructions issued per FU type, per thread (Count)
system.cpu1.statIssuedInstType_0::IntDiv        39642      0.07%     69.43% # Number of instructions issued per FU type, per thread (Count)
system.cpu1.statIssuedInstType_0::FloatAdd         9078      0.02%     69.45% # Number of instructions issued per FU type, per thread (Count)
system.cpu1.statIssuedInstType_0::FloatCmp            0      0.00%     69.45% # Number of instructions issued per FU type, per thread (Count)
system.cpu1.statIssuedInstType_0::FloatCvt         1585      0.00%     69.45% # Number of instructions issued per FU type, per thread (Count)
system.cpu1.statIssuedInstType_0::FloatMult            0      0.00%     69.45% # Number of instructions issued per FU type, per thread (Count)
system.cpu1.statIssuedInstType_0::FloatMultAcc            0      0.00%     69.45% # Number of instructions issued per FU type, per thread (Count)
system.cpu1.statIssuedInstType_0::FloatDiv            0      0.00%     69.45% # Number of instructions issued per FU type, per thread (Count)
system.cpu1.statIssuedInstType_0::FloatMisc            0      0.00%     69.45% # Number of instructions issued per FU type, per thread (Count)
system.cpu1.statIssuedInstType_0::FloatSqrt            0      0.00%     69.45% # Number of instructions issued per FU type, per thread (Count)
system.cpu1.statIssuedInstType_0::SimdAdd         7129      0.01%     69.46% # Number of instructions issued per FU type, per thread (Count)
system.cpu1.statIssuedInstType_0::SimdAddAcc            0      0.00%     69.46% # Number of instructions issued per FU type, per thread (Count)
system.cpu1.statIssuedInstType_0::SimdAlu        15375      0.03%     69.49% # Number of instructions issued per FU type, per thread (Count)
system.cpu1.statIssuedInstType_0::SimdCmp           12      0.00%     69.49% # Number of instructions issued per FU type, per thread (Count)
system.cpu1.statIssuedInstType_0::SimdCvt        15193      0.03%     69.52% # Number of instructions issued per FU type, per thread (Count)
system.cpu1.statIssuedInstType_0::SimdMisc        15280      0.03%     69.55% # Number of instructions issued per FU type, per thread (Count)
system.cpu1.statIssuedInstType_0::SimdMult            0      0.00%     69.55% # Number of instructions issued per FU type, per thread (Count)
system.cpu1.statIssuedInstType_0::SimdMultAcc            0      0.00%     69.55% # Number of instructions issued per FU type, per thread (Count)
system.cpu1.statIssuedInstType_0::SimdShift         2644      0.00%     69.56% # Number of instructions issued per FU type, per thread (Count)
system.cpu1.statIssuedInstType_0::SimdShiftAcc            0      0.00%     69.56% # Number of instructions issued per FU type, per thread (Count)
system.cpu1.statIssuedInstType_0::SimdDiv            0      0.00%     69.56% # Number of instructions issued per FU type, per thread (Count)
system.cpu1.statIssuedInstType_0::SimdSqrt            0      0.00%     69.56% # Number of instructions issued per FU type, per thread (Count)
system.cpu1.statIssuedInstType_0::SimdFloatAdd            0      0.00%     69.56% # Number of instructions issued per FU type, per thread (Count)
system.cpu1.statIssuedInstType_0::SimdFloatAlu            0      0.00%     69.56% # Number of instructions issued per FU type, per thread (Count)
system.cpu1.statIssuedInstType_0::SimdFloatCmp            0      0.00%     69.56% # Number of instructions issued per FU type, per thread (Count)
system.cpu1.statIssuedInstType_0::SimdFloatCvt            0      0.00%     69.56% # Number of instructions issued per FU type, per thread (Count)
system.cpu1.statIssuedInstType_0::SimdFloatDiv            0      0.00%     69.56% # Number of instructions issued per FU type, per thread (Count)
system.cpu1.statIssuedInstType_0::SimdFloatMisc            0      0.00%     69.56% # Number of instructions issued per FU type, per thread (Count)
system.cpu1.statIssuedInstType_0::SimdFloatMult            0      0.00%     69.56% # Number of instructions issued per FU type, per thread (Count)
system.cpu1.statIssuedInstType_0::SimdFloatMultAcc            0      0.00%     69.56% # Number of instructions issued per FU type, per thread (Count)
system.cpu1.statIssuedInstType_0::SimdFloatSqrt            0      0.00%     69.56% # Number of instructions issued per FU type, per thread (Count)
system.cpu1.statIssuedInstType_0::SimdReduceAdd            0      0.00%     69.56% # Number of instructions issued per FU type, per thread (Count)
system.cpu1.statIssuedInstType_0::SimdReduceAlu            0      0.00%     69.56% # Number of instructions issued per FU type, per thread (Count)
system.cpu1.statIssuedInstType_0::SimdReduceCmp            0      0.00%     69.56% # Number of instructions issued per FU type, per thread (Count)
system.cpu1.statIssuedInstType_0::SimdFloatReduceAdd            0      0.00%     69.56% # Number of instructions issued per FU type, per thread (Count)
system.cpu1.statIssuedInstType_0::SimdFloatReduceCmp            0      0.00%     69.56% # Number of instructions issued per FU type, per thread (Count)
system.cpu1.statIssuedInstType_0::SimdAes            0      0.00%     69.56% # Number of instructions issued per FU type, per thread (Count)
system.cpu1.statIssuedInstType_0::SimdAesMix            0      0.00%     69.56% # Number of instructions issued per FU type, per thread (Count)
system.cpu1.statIssuedInstType_0::SimdSha1Hash            0      0.00%     69.56% # Number of instructions issued per FU type, per thread (Count)
system.cpu1.statIssuedInstType_0::SimdSha1Hash2            0      0.00%     69.56% # Number of instructions issued per FU type, per thread (Count)
system.cpu1.statIssuedInstType_0::SimdSha256Hash            0      0.00%     69.56% # Number of instructions issued per FU type, per thread (Count)
system.cpu1.statIssuedInstType_0::SimdSha256Hash2            0      0.00%     69.56% # Number of instructions issued per FU type, per thread (Count)
system.cpu1.statIssuedInstType_0::SimdShaSigma2            0      0.00%     69.56% # Number of instructions issued per FU type, per thread (Count)
system.cpu1.statIssuedInstType_0::SimdShaSigma3            0      0.00%     69.56% # Number of instructions issued per FU type, per thread (Count)
system.cpu1.statIssuedInstType_0::SimdPredAlu            0      0.00%     69.56% # Number of instructions issued per FU type, per thread (Count)
system.cpu1.statIssuedInstType_0::MemRead      8222439     15.42%     84.98% # Number of instructions issued per FU type, per thread (Count)
system.cpu1.statIssuedInstType_0::MemWrite      7970727     14.95%     99.93% # Number of instructions issued per FU type, per thread (Count)
system.cpu1.statIssuedInstType_0::FloatMemRead        23048      0.04%     99.97% # Number of instructions issued per FU type, per thread (Count)
system.cpu1.statIssuedInstType_0::FloatMemWrite        16120      0.03%    100.00% # Number of instructions issued per FU type, per thread (Count)
system.cpu1.statIssuedInstType_0::IprAccess            0      0.00%    100.00% # Number of instructions issued per FU type, per thread (Count)
system.cpu1.statIssuedInstType_0::InstPrefetch            0      0.00%    100.00% # Number of instructions issued per FU type, per thread (Count)
system.cpu1.statIssuedInstType_0::total      53317731                       # Number of instructions issued per FU type, per thread (Count)
system.cpu1.issueRate                        0.364818                       # Inst issue rate ((Count/Cycle))
system.cpu1.fuBusy                             157851                       # FU busy when requested (Count)
system.cpu1.fuBusyRate                       0.002961                       # FU busy rate (busy events/executed inst) ((Count/Count))
system.cpu1.intInstQueueReads               251477319                       # Number of integer instruction queue reads (Count)
system.cpu1.intInstQueueWrites               55003214                       # Number of integer instruction queue writes (Count)
system.cpu1.intInstQueueWakeupAccesses       53151283                       # Number of integer instruction queue wakeup accesses (Count)
system.cpu1.fpInstQueueReads                   222358                       # Number of floating instruction queue reads (Count)
system.cpu1.fpInstQueueWrites                  158249                       # Number of floating instruction queue writes (Count)
system.cpu1.fpInstQueueWakeupAccesses          106173                       # Number of floating instruction queue wakeup accesses (Count)
system.cpu1.vecInstQueueReads                       0                       # Number of vector instruction queue reads (Count)
system.cpu1.vecInstQueueWrites                      0                       # Number of vector instruction queue writes (Count)
system.cpu1.vecInstQueueWakeupAccesses              0                       # Number of vector instruction queue wakeup accesses (Count)
system.cpu1.intAluAccesses                   51111497                       # Number of integer alu accesses (Count)
system.cpu1.fpAluAccesses                      111837                       # Number of floating point alu accesses (Count)
system.cpu1.vecAluAccesses                          0                       # Number of vector alu accesses (Count)
system.cpu1.numInsts                         53292715                       # Number of executed instructions (Count)
system.cpu1.numLoadInsts                      8240321                       # Number of load instructions executed (Count)
system.cpu1.numSquashedInsts                    25016                       # Number of squashed instructions skipped in execute (Count)
system.cpu1.numSwp                                  0                       # Number of swp insts executed (Count)
system.cpu1.numNop                                  0                       # Number of nop insts executed (Count)
system.cpu1.numRefs                          16224729                       # Number of memory reference insts executed (Count)
system.cpu1.numBranches                       4834707                       # Number of branches executed (Count)
[...]
system.ruby.network.ext_out_link_utilization     52319262                       (Unspecified)
system.ruby.network.flit_network_latency |2024455434000                       |2206888926000                       |192944820500                       (Unspecified)
system.ruby.network.flit_queueing_latency | 21141797500                       | 16125467000                       |  1409880000                       (Unspecified)
system.ruby.network.flits_injected       |    18714757     35.77%     35.77% |    30784806     58.84%     94.61% |     2819764      5.39%    100.00% (Unspecified)
system.ruby.network.flits_injected::total     52319327                       (Unspecified)
system.ruby.network.flits_received       |    18714711     35.77%     35.77% |    30784785     58.84%     94.61% |     2819760      5.39%    100.00% (Unspecified)
system.ruby.network.flits_received::total     52319256                       (Unspecified)
system.ruby.network.int_link_utilization    132241582                       (Unspecified)
system.ruby.network.packet_network_latency |870947935500                       |718157159000                       |192944820500                       (Unspecified)
system.ruby.network.packet_queueing_latency | 10645022500                       |  4364145500                       |  1409880000                       (Unspecified)
system.ruby.network.packets_injected     |     8406281     42.82%     42.82% |     8406258     42.82%     85.64% |     2819764     14.36%    100.00% (Unspecified)
system.ruby.network.packets_injected::total     19632303                       (Unspecified)
system.ruby.network.packets_received     |     8406264     42.82%     42.82% |     8406250     42.82%     85.64% |     2819760     14.36%    100.00% (Unspecified)
system.ruby.network.packets_received::total     19632274                       (Unspecified)
system.ruby.network.routers00.Var_1                 0                       (Unspecified)
system.ruby.network.routers00.Var_2              2798                       (Unspecified)
system.ruby.network.routers00.Var_3              7271                       (Unspecified)
system.ruby.network.routers00.all_counts       515660                       (Unspecified)
system.ruby.network.routers00.buffer_reads      8155642                       (Unspecified)
system.ruby.network.routers00.buffer_writes      8155642                       (Unspecified)
system.ruby.network.routers00.crossbar_activity      8155642                       (Unspecified)
system.ruby.network.routers00.detour_counts         3659                       (Unspecified)
system.ruby.network.routers00.regular_var            0                       (Unspecified)
system.ruby.network.routers00.risk_counts         7276                       (Unspecified)
system.ruby.network.routers00.sw_input_arbiter_activity      8190426                       (Unspecified)
system.ruby.network.routers00.sw_output_arbiter_activity      8155642                       (Unspecified)
system.ruby.network.routers01.Var_1                 2                       (Unspecified)
system.ruby.network.routers01.Var_2              2784                       (Unspecified)
system.ruby.network.routers01.Var_3             10747                       (Unspecified)
system.ruby.network.routers01.all_counts       533649                       (Unspecified)
system.ruby.network.routers01.buffer_reads     11556327                       (Unspecified)
system.ruby.network.routers01.buffer_writes     11556327                       (Unspecified)
system.ruby.network.routers01.crossbar_activity     11556327                       (Unspecified)
system.ruby.network.routers01.detour_counts         5406                       (Unspecified)
system.ruby.network.routers01.regular_var            0                       (Unspecified)
system.ruby.network.routers01.risk_counts        10760                       (Unspecified)
system.ruby.network.routers01.sw_input_arbiter_activity     11633908                       (Unspecified)
system.ruby.network.routers01.sw_output_arbiter_activity     11556327                       (Unspecified)
system.ruby.network.routers02.Var_1                 2                       (Unspecified)
system.ruby.network.routers02.Var_2              2846                       (Unspecified)
system.ruby.network.routers02.Var_3             10975                       (Unspecified)
system.ruby.network.routers02.all_counts       533513                       (Unspecified)
system.ruby.network.routers02.buffer_reads     11549370                       (Unspecified)
system.ruby.network.routers02.buffer_writes     11549370                       (Unspecified)
system.ruby.network.routers02.crossbar_activity     11549370                       (Unspecified)
system.ruby.network.routers02.detour_counts         5436                       (Unspecified)
system.ruby.network.routers02.regular_var            1                       (Unspecified)
system.ruby.network.routers02.risk_counts        11010                       (Unspecified)
system.ruby.network.routers02.sw_input_arbiter_activity     11626762                       (Unspecified)
system.ruby.network.routers02.sw_output_arbiter_activity     11549370                       (Unspecified)
system.ruby.network.routers03.Var_1                 3                       (Unspecified)
system.ruby.network.routers03.Var_2              2838                       (Unspecified)
system.ruby.network.routers03.Var_3              7459                       (Unspecified)
system.ruby.network.routers03.all_counts       515562                       (Unspecified)
system.ruby.network.routers03.buffer_reads      8140618                       (Unspecified)
system.ruby.network.routers03.buffer_writes      8140618                       (Unspecified)
system.ruby.network.routers03.crossbar_activity      8140618                       (Unspecified)
system.ruby.network.routers03.detour_counts         3678                       (Unspecified)
system.ruby.network.routers03.regular_var            0                       (Unspecified)
system.ruby.network.routers03.risk_counts         7476                       (Unspecified)
system.ruby.network.routers03.sw_input_arbiter_activity      8175734                       (Unspecified)
system.ruby.network.routers03.sw_output_arbiter_activity      8140618                       (Unspecified)
system.ruby.network.routers04.Var_1                 2                       (Unspecified)
system.ruby.network.routers04.Var_2              2828                       (Unspecified)
system.ruby.network.routers04.Var_3             84682                       (Unspecified)
system.ruby.network.routers04.all_counts       526489                       (Unspecified)
system.ruby.network.routers04.buffer_reads     11448878                       (Unspecified)
system.ruby.network.routers04.buffer_writes     11448878                       (Unspecified)
system.ruby.network.routers04.crossbar_activity     11448878                       (Unspecified)
system.ruby.network.routers04.detour_counts        42445                       (Unspecified)
system.ruby.network.routers04.regular_var            0                       (Unspecified)
system.ruby.network.routers04.risk_counts        84697                       (Unspecified)
system.ruby.network.routers04.sw_input_arbiter_activity     11524656                       (Unspecified)
system.ruby.network.routers04.sw_output_arbiter_activity     11448878                       (Unspecified)
system.ruby.network.routers05.Var_1                 4                       (Unspecified)
system.ruby.network.routers05.Var_2              2778                       (Unspecified)
system.ruby.network.routers05.Var_3             90845                       (Unspecified)
system.ruby.network.routers05.all_counts       548878                       (Unspecified)
system.ruby.network.routers05.buffer_reads     14985930                       (Unspecified)
system.ruby.network.routers05.buffer_writes     14985930                       (Unspecified)
system.ruby.network.routers05.crossbar_activity     14985930                       (Unspecified)
system.ruby.network.routers05.detour_counts        45505                       (Unspecified)
system.ruby.network.routers05.regular_var            1                       (Unspecified)
system.ruby.network.routers05.risk_counts        90867                       (Unspecified)
system.ruby.network.routers05.sw_input_arbiter_activity     15103928                       (Unspecified)
system.ruby.network.routers05.sw_output_arbiter_activity     14985930                       (Unspecified)
system.ruby.network.routers06.Var_1                 3                       (Unspecified)
system.ruby.network.routers06.Var_2              2815                       (Unspecified)
system.ruby.network.routers06.Var_3             90980                       (Unspecified)
system.ruby.network.routers06.all_counts       548777                       (Unspecified)
system.ruby.network.routers06.buffer_reads     14984699                       (Unspecified)
system.ruby.network.routers06.buffer_writes     14984699                       (Unspecified)
system.ruby.network.routers06.crossbar_activity     14984698                       (Unspecified)
system.ruby.network.routers06.detour_counts        45733                       (Unspecified)
system.ruby.network.routers06.regular_var            0                       (Unspecified)
system.ruby.network.routers06.risk_counts        91005                       (Unspecified)
system.ruby.network.routers06.sw_input_arbiter_activity     15103882                       (Unspecified)
system.ruby.network.routers06.sw_output_arbiter_activity     14984698                       (Unspecified)
system.ruby.network.routers07.Var_1                 0                       (Unspecified)
system.ruby.network.routers07.Var_2              2854                       (Unspecified)
system.ruby.network.routers07.Var_3             84284                       (Unspecified)
system.ruby.network.routers07.all_counts       526182                       (Unspecified)
system.ruby.network.routers07.buffer_reads     11440331                       (Unspecified)
system.ruby.network.routers07.buffer_writes     11440331                       (Unspecified)
system.ruby.network.routers07.crossbar_activity     11440331                       (Unspecified)
system.ruby.network.routers07.detour_counts        42238                       (Unspecified)
system.ruby.network.routers07.regular_var            1                       (Unspecified)
system.ruby.network.routers07.risk_counts        84302                       (Unspecified)
system.ruby.network.routers07.sw_input_arbiter_activity     11516519                       (Unspecified)
system.ruby.network.routers07.sw_output_arbiter_activity     11440331                       (Unspecified)
system.ruby.network.routers08.Var_1                 3                       (Unspecified)
system.ruby.network.routers08.Var_2              2827                       (Unspecified)
system.ruby.network.routers08.Var_3             84544                       (Unspecified)
system.ruby.network.routers08.all_counts       526187                       (Unspecified)
system.ruby.network.routers08.buffer_reads     11451628                       (Unspecified)
system.ruby.network.routers08.buffer_writes     11451628                       (Unspecified)
system.ruby.network.routers08.crossbar_activity     11451628                       (Unspecified)
system.ruby.network.routers08.detour_counts        42129                       (Unspecified)
system.ruby.network.routers08.regular_var            0                       (Unspecified)
system.ruby.network.routers08.risk_counts        84561                       (Unspecified)
system.ruby.network.routers08.sw_input_arbiter_activity     11527557                       (Unspecified)
system.ruby.network.routers08.sw_output_arbiter_activity     11451628                       (Unspecified)
system.ruby.network.routers09.Var_1                 2                       (Unspecified)
system.ruby.network.routers09.Var_2              2772                       (Unspecified)
system.ruby.network.routers09.Var_3             90962                       (Unspecified)
system.ruby.network.routers09.all_counts       548548                       (Unspecified)
system.ruby.network.routers09.buffer_reads     14993898                       (Unspecified)
system.ruby.network.routers09.buffer_writes     14993898                       (Unspecified)
system.ruby.network.routers09.crossbar_activity     14993896                       (Unspecified)
system.ruby.network.routers09.detour_counts        45619                       (Unspecified)
system.ruby.network.routers09.regular_var            0                       (Unspecified)
system.ruby.network.routers09.risk_counts        90981                       (Unspecified)
system.ruby.network.routers09.sw_input_arbiter_activity     15113924                       (Unspecified)
system.ruby.network.routers09.sw_output_arbiter_activity     14993896                       (Unspecified)
system.ruby.network.routers10.Var_1                 6                       (Unspecified)
system.ruby.network.routers10.Var_2              2762                       (Unspecified)
system.ruby.network.routers10.Var_3             90925                       (Unspecified)
system.ruby.network.routers10.all_counts       548709                       (Unspecified)
system.ruby.network.routers10.buffer_reads     14993505                       (Unspecified)
system.ruby.network.routers10.buffer_writes     14993505                       (Unspecified)
system.ruby.network.routers10.crossbar_activity     14993505                       (Unspecified)
system.ruby.network.routers10.detour_counts        45605                       (Unspecified)
system.ruby.network.routers10.regular_var            1                       (Unspecified)
system.ruby.network.routers10.risk_counts        90954                       (Unspecified)
system.ruby.network.routers10.sw_input_arbiter_activity     15114566                       (Unspecified)
system.ruby.network.routers10.sw_output_arbiter_activity     14993505                       (Unspecified)
system.ruby.network.routers11.Var_1                 4                       (Unspecified)
system.ruby.network.routers11.Var_2              2836                       (Unspecified)
system.ruby.network.routers11.Var_3             84258                       (Unspecified)
system.ruby.network.routers11.all_counts       526196                       (Unspecified)
system.ruby.network.routers11.buffer_reads     11445545                       (Unspecified)
system.ruby.network.routers11.buffer_writes     11445545                       (Unspecified)
system.ruby.network.routers11.crossbar_activity     11445545                       (Unspecified)
system.ruby.network.routers11.detour_counts        42341                       (Unspecified)
system.ruby.network.routers11.regular_var            1                       (Unspecified)
system.ruby.network.routers11.risk_counts        84291                       (Unspecified)
system.ruby.network.routers11.sw_input_arbiter_activity     11523039                       (Unspecified)
system.ruby.network.routers11.sw_output_arbiter_activity     11445545                       (Unspecified)
system.ruby.network.routers12.Var_1                 1                       (Unspecified)
system.ruby.network.routers12.Var_2              2815                       (Unspecified)
system.ruby.network.routers12.Var_3              7279                       (Unspecified)
system.ruby.network.routers12.all_counts       515503                       (Unspecified)
system.ruby.network.routers12.buffer_reads      8155780                       (Unspecified)
system.ruby.network.routers12.buffer_writes      8155780                       (Unspecified)
system.ruby.network.routers12.crossbar_activity      8155779                       (Unspecified)
system.ruby.network.routers12.detour_counts         3690                       (Unspecified)
system.ruby.network.routers12.regular_var            1                       (Unspecified)
system.ruby.network.routers12.risk_counts         7300                       (Unspecified)
system.ruby.network.routers12.sw_input_arbiter_activity      8192307                       (Unspecified)
system.ruby.network.routers12.sw_output_arbiter_activity      8155779                       (Unspecified)
system.ruby.network.routers13.Var_1                 5                       (Unspecified)
system.ruby.network.routers13.Var_2              2800                       (Unspecified)
system.ruby.network.routers13.Var_3             10784                       (Unspecified)
system.ruby.network.routers13.all_counts       533470                       (Unspecified)
system.ruby.network.routers13.buffer_reads     11559148                       (Unspecified)
system.ruby.network.routers13.buffer_writes     11559148                       (Unspecified)
system.ruby.network.routers13.crossbar_activity     11559148                       (Unspecified)
system.ruby.network.routers13.detour_counts         5332                       (Unspecified)
system.ruby.network.routers13.regular_var            1                       (Unspecified)
system.ruby.network.routers13.risk_counts        10812                       (Unspecified)
system.ruby.network.routers13.sw_input_arbiter_activity     11639320                       (Unspecified)
system.ruby.network.routers13.sw_output_arbiter_activity     11559148                       (Unspecified)
system.ruby.network.routers14.Var_1                 2                       (Unspecified)
system.ruby.network.routers14.Var_2              2846                       (Unspecified)
system.ruby.network.routers14.Var_3             10968                       (Unspecified)
system.ruby.network.routers14.all_counts       533674                       (Unspecified)
system.ruby.network.routers14.buffer_reads     11552483                       (Unspecified)
system.ruby.network.routers14.buffer_writes     11552483                       (Unspecified)
system.ruby.network.routers14.crossbar_activity     11552483                       (Unspecified)
system.ruby.network.routers14.detour_counts         5494                       (Unspecified)
system.ruby.network.routers14.regular_var            1                       (Unspecified)
system.ruby.network.routers14.risk_counts        10997                       (Unspecified)
system.ruby.network.routers14.sw_input_arbiter_activity     11631510                       (Unspecified)
system.ruby.network.routers14.sw_output_arbiter_activity     11552483                       (Unspecified)
system.ruby.network.routers15.Var_1                 0                       (Unspecified)
system.ruby.network.routers15.Var_2              2835                       (Unspecified)
system.ruby.network.routers15.Var_3              7373                       (Unspecified)
system.ruby.network.routers15.all_counts       515450                       (Unspecified)
system.ruby.network.routers15.buffer_reads      8147068                       (Unspecified)
system.ruby.network.routers15.buffer_writes      8147068                       (Unspecified)
system.ruby.network.routers15.crossbar_activity      8147068                       (Unspecified)
system.ruby.network.routers15.detour_counts         3750                       (Unspecified)
system.ruby.network.routers15.regular_var            0                       (Unspecified)
system.ruby.network.routers15.risk_counts         7391                       (Unspecified)
system.ruby.network.routers15.sw_input_arbiter_activity      8183118                       (Unspecified)
system.ruby.network.routers15.sw_output_arbiter_activity      8147068                       (Unspecified)

---------- End Simulation Statistics   ----------
