
---------- Begin Simulation Statistics ----------
simSeconds                                   0.031573                       # Number of seconds simulated (Second)
simTicks                                  31573255000                       # Number of ticks simulated (Tick)
finalTick                                 31573255000                       # Number of ticks from beginning of simulation (restored from checkpoints and never reset) (Tick)
simFreq                                  1000000000000                       # The number of ticks per simulated second ((Tick/Second))
hostSeconds                                   1551.62                       # Real time elapsed on the host (Second)
hostTickRate                                 20348621                       # The number of ticks simulated per host second (ticks/s) ((Tick/Second))
hostMemory                                   40420128                       # Number of bytes of host memory used (Byte)
simInsts                                     78224848                       # Number of instructions simulated (Count)
simOps                                      143497248                       # Number of ops (including micro ops) simulated (Count)
hostInstRate                                    50415                       # Simulator instruction rate (inst/s) ((Count/Second))
hostOpRate                                      92482                       # Simulator op (including micro ops) rate (op/s) ((Count/Second))
system.clk_domain.clock                          1000                       # Clock period in ticks (Tick)
system.cpu0.numCycles                        62983055                       # Number of cpu cycles simulated (Cycle)
system.cpu0.numWorkItemsStarted                     0                       # Number of work items this cpu started (Count)
system.cpu0.numWorkItemsCompleted                   0                       # Number of work items this cpu completed (Count)
system.cpu0.instsAdded                        9343593                       # Number of instructions added to the IQ (excludes non-spec) (Count)
system.cpu0.nonSpecInstsAdded                     396                       # Number of non-speculative instructions added to the IQ (Count)
system.cpu0.instsIssued                       9285897                       # Number of instructions issued (Count)
system.cpu0.squashedInstsIssued                   783                       # Number of squashed instructions issued (Count)
system.cpu0.squashedInstsExamined              375411                       # Number of squashed instructions iterated over during squash; mainly for profiling (Count)
system.cpu0.squashedOperandsExamined           417217                       # Number of squashed operands that are examined and possibly removed from graph (Count)
system.cpu0.squashedNonSpecRemoved                228                       # Number of squashed non-spec instructions that were removed (Count)
system.cpu0.numIssuedDist::samples           62221423                       # Number of insts issued each cycle (Count)
system.cpu0.numIssuedDist::mean              0.149240                       # Number of insts issued each cycle (Count)
system.cpu0.numIssuedDist::stdev             0.773748                       # Number of insts issued each cycle (Count)
system.cpu0.numIssuedDist::underflows               0      0.00%      0.00% # Number of insts issued each cycle (Count)
system.cpu0.numIssuedDist::0                 59243443     95.21%     95.21% # Number of insts issued each cycle (Count)
system.cpu0.numIssuedDist::1                   823796      1.32%     96.54% # Number of insts issued each cycle (Count)
system.cpu0.numIssuedDist::2                   356177      0.57%     97.11% # Number of insts issued each cycle (Count)
system.cpu0.numIssuedDist::3                   526022      0.85%     97.96% # Number of insts issued each cycle (Count)
system.cpu0.numIssuedDist::4                   693836      1.12%     99.07% # Number of insts issued each cycle (Count)
system.cpu0.numIssuedDist::5                   279272      0.45%     99.52% # Number of insts issued each cycle (Count)
system.cpu0.numIssuedDist::6                   154253      0.25%     99.77% # Number of insts issued each cycle (Count)
system.cpu0.numIssuedDist::7                    82533      0.13%     99.90% # Number of insts issued each cycle (Count)
system.cpu0.numIssuedDist::8                    62091      0.10%    100.00% # Number of insts issued each cycle (Count)
system.cpu0.numIssuedDist::overflows                0      0.00%    100.00% # Number of insts issued each cycle (Count)
system.cpu0.numIssuedDist::min_value                0                       # Number of insts issued each cycle (Count)
system.cpu0.numIssuedDist::max_value                8                       # Number of insts issued each cycle (Count)
system.cpu0.numIssuedDist::total             62221423                       # Number of insts issued each cycle (Count)
system.cpu0.statFuBusy::No_OpClass                  0      0.00%      0.00% # attempts to use FU when none available (Count)
system.cpu0.statFuBusy::IntAlu                   4542      9.00%      9.00% # attempts to use FU when none available (Count)
system.cpu0.statFuBusy::IntMult                     0      0.00%      9.00% # attempts to use FU when none available (Count)
system.cpu0.statFuBusy::IntDiv                      0      0.00%      9.00% # attempts to use FU when none available (Count)
system.cpu0.statFuBusy::FloatAdd                    0      0.00%      9.00% # attempts to use FU when none available (Count)
system.cpu0.statFuBusy::FloatCmp                    0      0.00%      9.00% # attempts to use FU when none available (Count)
system.cpu0.statFuBusy::FloatCvt                    0      0.00%      9.00% # attempts to use FU when none available (Count)
system.cpu0.statFuBusy::FloatMult                   0      0.00%      9.00% # attempts to use FU when none available (Count)
system.cpu0.statFuBusy::FloatMultAcc                0      0.00%      9.00% # attempts to use FU when none available (Count)
system.cpu0.statFuBusy::FloatDiv                    0      0.00%      9.00% # attempts to use FU when none available (Count)
system.cpu0.statFuBusy::FloatMisc                   0      0.00%      9.00% # attempts to use FU when none available (Count)
system.cpu0.statFuBusy::FloatSqrt                   0      0.00%      9.00% # attempts to use FU when none available (Count)
system.cpu0.statFuBusy::SimdAdd                     2      0.00%      9.00% # attempts to use FU when none available (Count)
system.cpu0.statFuBusy::SimdAddAcc                  0      0.00%      9.00% # attempts to use FU when none available (Count)
system.cpu0.statFuBusy::SimdAlu                    30      0.06%      9.06% # attempts to use FU when none available (Count)
system.cpu0.statFuBusy::SimdCmp                     0      0.00%      9.06% # attempts to use FU when none available (Count)
system.cpu0.statFuBusy::SimdCvt                   103      0.20%      9.26% # attempts to use FU when none available (Count)
system.cpu0.statFuBusy::SimdMisc                    2      0.00%      9.27% # attempts to use FU when none available (Count)
system.cpu0.statFuBusy::SimdMult                    0      0.00%      9.27% # attempts to use FU when none available (Count)
system.cpu0.statFuBusy::SimdMultAcc                 0      0.00%      9.27% # attempts to use FU when none available (Count)
system.cpu0.statFuBusy::SimdShift                  69      0.14%      9.41% # attempts to use FU when none available (Count)
system.cpu0.statFuBusy::SimdShiftAcc                0      0.00%      9.41% # attempts to use FU when none available (Count)
system.cpu0.statFuBusy::SimdDiv                     0      0.00%      9.41% # attempts to use FU when none available (Count)
system.cpu0.statFuBusy::SimdSqrt                    0      0.00%      9.41% # attempts to use FU when none available (Count)
system.cpu0.statFuBusy::SimdFloatAdd                0      0.00%      9.41% # attempts to use FU when none available (Count)
system.cpu0.statFuBusy::SimdFloatAlu                0      0.00%      9.41% # attempts to use FU when none available (Count)
system.cpu0.statFuBusy::SimdFloatCmp                0      0.00%      9.41% # attempts to use FU when none available (Count)
system.cpu0.statFuBusy::SimdFloatCvt                0      0.00%      9.41% # attempts to use FU when none available (Count)
system.cpu0.statFuBusy::SimdFloatDiv                0      0.00%      9.41% # attempts to use FU when none available (Count)
system.cpu0.statFuBusy::SimdFloatMisc               0      0.00%      9.41% # attempts to use FU when none available (Count)
system.cpu0.statFuBusy::SimdFloatMult               0      0.00%      9.41% # attempts to use FU when none available (Count)
system.cpu0.statFuBusy::SimdFloatMultAcc            0      0.00%      9.41% # attempts to use FU when none available (Count)
system.cpu0.statFuBusy::SimdFloatSqrt               0      0.00%      9.41% # attempts to use FU when none available (Count)
system.cpu0.statFuBusy::SimdReduceAdd               0      0.00%      9.41% # attempts to use FU when none available (Count)
system.cpu0.statFuBusy::SimdReduceAlu               0      0.00%      9.41% # attempts to use FU when none available (Count)
system.cpu0.statFuBusy::SimdReduceCmp               0      0.00%      9.41% # attempts to use FU when none available (Count)
system.cpu0.statFuBusy::SimdFloatReduceAdd            0      0.00%      9.41% # attempts to use FU when none available (Count)
system.cpu0.statFuBusy::SimdFloatReduceCmp            0      0.00%      9.41% # attempts to use FU when none available (Count)
system.cpu0.statFuBusy::SimdAes                     0      0.00%      9.41% # attempts to use FU when none available (Count)
system.cpu0.statFuBusy::SimdAesMix                  0      0.00%      9.41% # attempts to use FU when none available (Count)
system.cpu0.statFuBusy::SimdSha1Hash                0      0.00%      9.41% # attempts to use FU when none available (Count)
system.cpu0.statFuBusy::SimdSha1Hash2               0      0.00%      9.41% # attempts to use FU when none available (Count)
system.cpu0.statFuBusy::SimdSha256Hash              0      0.00%      9.41% # attempts to use FU when none available (Count)
system.cpu0.statFuBusy::SimdSha256Hash2             0      0.00%      9.41% # attempts to use FU when none available (Count)
system.cpu0.statFuBusy::SimdShaSigma2               0      0.00%      9.41% # attempts to use FU when none available (Count)
system.cpu0.statFuBusy::SimdShaSigma3               0      0.00%      9.41% # attempts to use FU when none available (Count)
system.cpu0.statFuBusy::SimdPredAlu                 0      0.00%      9.41% # attempts to use FU when none available (Count)
system.cpu0.statFuBusy::MemRead                  4069      8.06%     17.47% # attempts to use FU when none available (Count)
system.cpu0.statFuBusy::MemWrite                38620     76.50%     93.97% # attempts to use FU when none available (Count)
system.cpu0.statFuBusy::FloatMemRead               70      0.14%     94.11% # attempts to use FU when none available (Count)
system.cpu0.statFuBusy::FloatMemWrite            2974      5.89%    100.00% # attempts to use FU when none available (Count)
system.cpu0.statFuBusy::IprAccess                   0      0.00%    100.00% # attempts to use FU when none available (Count)
system.cpu0.statFuBusy::InstPrefetch                0      0.00%    100.00% # attempts to use FU when none available (Count)
system.cpu0.statIssuedInstType_0::No_OpClass       209474      2.26%      2.26% # Number of instructions issued per FU type, per thread (Count)
system.cpu0.statIssuedInstType_0::IntAlu      5841821     62.91%     65.17% # Number of instructions issued per FU type, per thread (Count)
system.cpu0.statIssuedInstType_0::IntMult           27      0.00%     65.17% # Number of instructions issued per FU type, per thread (Count)
system.cpu0.statIssuedInstType_0::IntDiv         2517      0.03%     65.19% # Number of instructions issued per FU type, per thread (Count)
system.cpu0.statIssuedInstType_0::FloatAdd         1111      0.01%     65.21% # Number of instructions issued per FU type, per thread (Count)
system.cpu0.statIssuedInstType_0::FloatCmp            0      0.00%     65.21% # Number of instructions issued per FU type, per thread (Count)
system.cpu0.statIssuedInstType_0::FloatCvt           32      0.00%     65.21% # Number of instructions issued per FU type, per thread (Count)
system.cpu0.statIssuedInstType_0::FloatMult            0      0.00%     65.21% # Number of instructions issued per FU type, per thread (Count)
system.cpu0.statIssuedInstType_0::FloatMultAcc            0      0.00%     65.21% # Number of instructions issued per FU type, per thread (Count)
system.cpu0.statIssuedInstType_0::FloatDiv            0      0.00%     65.21% # Number of instructions issued per FU type, per thread (Count)
system.cpu0.statIssuedInstType_0::FloatMisc            0      0.00%     65.21% # Number of instructions issued per FU type, per thread (Count)
system.cpu0.statIssuedInstType_0::FloatSqrt            0      0.00%     65.21% # Number of instructions issued per FU type, per thread (Count)
system.cpu0.statIssuedInstType_0::SimdAdd         1226      0.01%     65.22% # Number of instructions issued per FU type, per thread (Count)
system.cpu0.statIssuedInstType_0::SimdAddAcc            0      0.00%     65.22% # Number of instructions issued per FU type, per thread (Count)
system.cpu0.statIssuedInstType_0::SimdAlu       203539      2.19%     67.41% # Number of instructions issued per FU type, per thread (Count)
system.cpu0.statIssuedInstType_0::SimdCmp            6      0.00%     67.41% # Number of instructions issued per FU type, per thread (Count)
system.cpu0.statIssuedInstType_0::SimdCvt         3128      0.03%     67.45% # Number of instructions issued per FU type, per thread (Count)
system.cpu0.statIssuedInstType_0::SimdMisc         2309      0.02%     67.47% # Number of instructions issued per FU type, per thread (Count)
system.cpu0.statIssuedInstType_0::SimdMult            0      0.00%     67.47% # Number of instructions issued per FU type, per thread (Count)
system.cpu0.statIssuedInstType_0::SimdMultAcc            0      0.00%     67.47% # Number of instructions issued per FU type, per thread (Count)
system.cpu0.statIssuedInstType_0::SimdShift         1198      0.01%     67.48% # Number of instructions issued per FU type, per thread (Count)
system.cpu0.statIssuedInstType_0::SimdShiftAcc            0      0.00%     67.48% # Number of instructions issued per FU type, per thread (Count)
system.cpu0.statIssuedInstType_0::SimdDiv            0      0.00%     67.48% # Number of instructions issued per FU type, per thread (Count)
system.cpu0.statIssuedInstType_0::SimdSqrt            0      0.00%     67.48% # Number of instructions issued per FU type, per thread (Count)
system.cpu0.statIssuedInstType_0::SimdFloatAdd            0      0.00%     67.48% # Number of instructions issued per FU type, per thread (Count)
system.cpu0.statIssuedInstType_0::SimdFloatAlu            0      0.00%     67.48% # Number of instructions issued per FU type, per thread (Count)
system.cpu0.statIssuedInstType_0::SimdFloatCmp            0      0.00%     67.48% # Number of instructions issued per FU type, per thread (Count)
system.cpu0.statIssuedInstType_0::SimdFloatCvt            0      0.00%     67.48% # Number of instructions issued per FU type, per thread (Count)
system.cpu0.statIssuedInstType_0::SimdFloatDiv            0      0.00%     67.48% # Number of instructions issued per FU type, per thread (Count)
system.cpu0.statIssuedInstType_0::SimdFloatMisc            0      0.00%     67.48% # Number of instructions issued per FU type, per thread (Count)
system.cpu0.statIssuedInstType_0::SimdFloatMult            0      0.00%     67.48% # Number of instructions issued per FU type, per thread (Count)
system.cpu0.statIssuedInstType_0::SimdFloatMultAcc            0      0.00%     67.48% # Number of instructions issued per FU type, per thread (Count)
system.cpu0.statIssuedInstType_0::SimdFloatSqrt            0      0.00%     67.48% # Number of instructions issued per FU type, per thread (Count)
system.cpu0.statIssuedInstType_0::SimdReduceAdd            0      0.00%     67.48% # Number of instructions issued per FU type, per thread (Count)
system.cpu0.statIssuedInstType_0::SimdReduceAlu            0      0.00%     67.48% # Number of instructions issued per FU type, per thread (Count)
system.cpu0.statIssuedInstType_0::SimdReduceCmp            0      0.00%     67.48% # Number of instructions issued per FU type, per thread (Count)
system.cpu0.statIssuedInstType_0::SimdFloatReduceAdd            0      0.00%     67.48% # Number of instructions issued per FU type, per thread (Count)
system.cpu0.statIssuedInstType_0::SimdFloatReduceCmp            0      0.00%     67.48% # Number of instructions issued per FU type, per thread (Count)
system.cpu0.statIssuedInstType_0::SimdAes            0      0.00%     67.48% # Number of instructions issued per FU type, per thread (Count)
system.cpu0.statIssuedInstType_0::SimdAesMix            0      0.00%     67.48% # Number of instructions issued per FU type, per thread (Count)
system.cpu0.statIssuedInstType_0::SimdSha1Hash            0      0.00%     67.48% # Number of instructions issued per FU type, per thread (Count)
system.cpu0.statIssuedInstType_0::SimdSha1Hash2            0      0.00%     67.48% # Number of instructions issued per FU type, per thread (Count)
system.cpu0.statIssuedInstType_0::SimdSha256Hash            0      0.00%     67.48% # Number of instructions issued per FU type, per thread (Count)
system.cpu0.statIssuedInstType_0::SimdSha256Hash2            0      0.00%     67.48% # Number of instructions issued per FU type, per thread (Count)
system.cpu0.statIssuedInstType_0::SimdShaSigma2            0      0.00%     67.48% # Number of instructions issued per FU type, per thread (Count)
system.cpu0.statIssuedInstType_0::SimdShaSigma3            0      0.00%     67.48% # Number of instructions issued per FU type, per thread (Count)
system.cpu0.statIssuedInstType_0::SimdPredAlu            0      0.00%     67.48% # Number of instructions issued per FU type, per thread (Count)
system.cpu0.statIssuedInstType_0::MemRead      1571652     16.93%     84.41% # Number of instructions issued per FU type, per thread (Count)
system.cpu0.statIssuedInstType_0::MemWrite       931874     10.04%     94.44% # Number of instructions issued per FU type, per thread (Count)
system.cpu0.statIssuedInstType_0::FloatMemRead         4784      0.05%     94.49% # Number of instructions issued per FU type, per thread (Count)
system.cpu0.statIssuedInstType_0::FloatMemWrite       511199      5.51%    100.00% # Number of instructions issued per FU type, per thread (Count)
system.cpu0.statIssuedInstType_0::IprAccess            0      0.00%    100.00% # Number of instructions issued per FU type, per thread (Count)
system.cpu0.statIssuedInstType_0::InstPrefetch            0      0.00%    100.00% # Number of instructions issued per FU type, per thread (Count)
system.cpu0.statIssuedInstType_0::total       9285897                       # Number of instructions issued per FU type, per thread (Count)
system.cpu0.issueRate                        0.147435                       # Inst issue rate ((Count/Cycle))
system.cpu0.fuBusy                              50481                       # FU busy when requested (Count)
system.cpu0.fuBusyRate                       0.005436                       # FU busy rate (busy events/executed inst) ((Count/Count))
system.cpu0.intInstQueueReads                79382660                       # Number of integer instruction queue reads (Count)
system.cpu0.intInstQueueWrites                8949913                       # Number of integer instruction queue writes (Count)
system.cpu0.intInstQueueWakeupAccesses        8537633                       # Number of integer instruction queue wakeup accesses (Count)
system.cpu0.fpInstQueueReads                  1461821                       # Number of floating instruction queue reads (Count)
system.cpu0.fpInstQueueWrites                  769618                       # Number of floating instruction queue writes (Count)
system.cpu0.fpInstQueueWakeupAccesses          713385                       # Number of floating instruction queue wakeup accesses (Count)
system.cpu0.vecInstQueueReads                       0                       # Number of vector instruction queue reads (Count)
system.cpu0.vecInstQueueWrites                      0                       # Number of vector instruction queue writes (Count)
system.cpu0.vecInstQueueWakeupAccesses              0                       # Number of vector instruction queue wakeup accesses (Count)
system.cpu0.intAluAccesses                    8394419                       # Number of integer alu accesses (Count)
system.cpu0.fpAluAccesses                      732485                       # Number of floating point alu accesses (Count)
system.cpu0.vecAluAccesses                          0                       # Number of vector alu accesses (Count)
system.cpu0.numInsts                          9278826                       # Number of executed instructions (Count)
system.cpu0.numLoadInsts                      1574718                       # Number of load instructions executed (Count)
system.cpu0.numSquashedInsts                     7071                       # Number of squashed instructions skipped in execute (Count)
system.cpu0.numSwp                                  0                       # Number of swp insts executed (Count)
system.cpu0.numNop                                  0                       # Number of nop insts executed (Count)
system.cpu0.numRefs                           3017201                       # Number of memory reference insts executed (Count)
system.cpu0.numBranches                        759585                       # Number of branches executed (Count)
system.cpu0.numStoreInsts                     1442483                       # Number of stores executed (Count)
system.cpu0.numRate                          0.147323                       # Inst execution rate ((Count/Cycle))
system.cpu0.timesIdled                           1432                       # Number of times that the entire CPU went into an idle state and unscheduled itself (Count)
system.cpu0.idleCycles                         761632                       # Total number of cycles that the CPU has spent unscheduled due to idling (Cycle)
system.cpu0.committedInsts                    4889053                       # Number of Instructions Simulated (Count)
system.cpu0.committedOps                      8968578                       # Number of Ops (including micro ops) Simulated (Count)
system.cpu0.cpi                             12.882465                       # CPI: Cycles Per Instruction ((Cycle/Count))
system.cpu0.totalCpi                        12.882465                       # CPI: Total CPI of All Threads ((Cycle/Count))
system.cpu0.ipc                              0.077625                       # IPC: Instructions Per Cycle ((Count/Cycle))
system.cpu0.totalIpc                         0.077625                       # IPC: Total IPC of All Threads ((Count/Cycle))
system.cpu0.intRegfileReads                  11374889                       # Number of integer regfile reads (Count)
system.cpu0.intRegfileWrites                  6305987                       # Number of integer regfile writes (Count)
system.cpu0.fpRegfileReads                     937494                       # Number of floating regfile reads (Count)
system.cpu0.fpRegfileWrites                    215406                       # Number of floating regfile writes (Count)
system.cpu0.ccRegfileReads                    2404119                       # number of cc regfile reads (Count)
system.cpu0.ccRegfileWrites                   2819330                       # number of cc regfile writes (Count)
system.cpu0.miscRegfileReads                  4442821                       # number of misc regfile reads (Count)
system.cpu0.miscRegfileWrites                      18                       # number of misc regfile writes (Count)
system.cpu0.MemDepUnit__0.insertedLoads       1579384                       # Number of loads inserted to the mem dependence unit. (Count)
system.cpu0.MemDepUnit__0.insertedStores      1446079                       # Number of stores inserted to the mem dependence unit. (Count)
system.cpu0.MemDepUnit__0.conflictingLoads       343087                       # Number of conflicting loads. (Count)
system.cpu0.MemDepUnit__0.conflictingStores          721                       # Number of conflicting stores. (Count)
system.cpu0.MemDepUnit__1.insertedLoads             0                       # Number of loads inserted to the mem dependence unit. (Count)
system.cpu0.MemDepUnit__1.insertedStores            0                       # Number of stores inserted to the mem dependence unit. (Count)
system.cpu0.MemDepUnit__1.conflictingLoads            0                       # Number of conflicting loads. (Count)
system.cpu0.MemDepUnit__1.conflictingStores            0                       # Number of conflicting stores. (Count)
system.cpu0.MemDepUnit__2.insertedLoads             0                       # Number of loads inserted to the mem dependence unit. (Count)
system.cpu0.MemDepUnit__2.insertedStores            0                       # Number of stores inserted to the mem dependence unit. (Count)
system.cpu0.MemDepUnit__2.conflictingLoads            0                       # Number of conflicting loads. (Count)
system.cpu0.MemDepUnit__2.conflictingStores            0                       # Number of conflicting stores. (Count)
system.cpu0.MemDepUnit__3.insertedLoads             0                       # Number of loads inserted to the mem dependence unit. (Count)
system.cpu0.MemDepUnit__3.insertedStores            0                       # Number of stores inserted to the mem dependence unit. (Count)
system.cpu0.MemDepUnit__3.conflictingLoads            0                       # Number of conflicting loads. (Count)
system.cpu0.MemDepUnit__3.conflictingStores            0                       # Number of conflicting stores. (Count)
system.cpu0.branchPred.lookups                 783705                       # Number of BP lookups (Count)
system.cpu0.branchPred.condPredicted           365688                       # Number of conditional branches predicted (Count)
system.cpu0.branchPred.condIncorrect             4292                       # Number of conditional branches incorrect (Count)
system.cpu0.branchPred.BTBLookups              443602                       # Number of BTB lookups (Count)
system.cpu0.branchPred.BTBUpdates                3017                       # Number of BTB updates (Count)
system.cpu0.branchPred.BTBHits                 441112                       # Number of BTB hits (Count)
system.cpu0.branchPred.BTBHitRatio           0.994387                       # BTB Hit Ratio (Ratio)
system.cpu0.branchPred.RASUsed                 104848                       # Number of times the RAS was used to get a target. (Count)
system.cpu0.branchPred.RASIncorrect                 8                       # Number of incorrect RAS predictions. (Count)
system.cpu0.branchPred.indirectLookups         104450                       # Number of indirect predictor lookups. (Count)
system.cpu0.branchPred.indirectHits            102493                       # Number of indirect target hits. (Count)
system.cpu0.branchPred.indirectMisses            1957                       # Number of indirect misses. (Count)
system.cpu0.branchPred.indirectMispredicted          554                       # Number of mispredicted indirect branches. (Count)
system.cpu0.commit.commitSquashedInsts         360309                       # The number of squashed insts skipped by commit (Count)
system.cpu0.commit.commitNonSpecStalls            168                       # The number of times commit has been forced to stall to communicate backwards (Count)
system.cpu0.commit.branchMispredicts             5172                       # The number of times a branch was mispredicted (Count)
system.cpu0.commit.numCommittedDist::samples     62171122                       # Number of insts commited each cycle (Count)
system.cpu0.commit.numCommittedDist::mean     0.144256                       # Number of insts commited each cycle (Count)
system.cpu0.commit.numCommittedDist::stdev     0.817786                       # Number of insts commited each cycle (Count)
system.cpu0.commit.numCommittedDist::underflows            0      0.00%      0.00% # Number of insts commited each cycle (Count)
system.cpu0.commit.numCommittedDist::0       59281291     95.35%     95.35% # Number of insts commited each cycle (Count)
system.cpu0.commit.numCommittedDist::1        1009873      1.62%     96.98% # Number of insts commited each cycle (Count)
system.cpu0.commit.numCommittedDist::2         321715      0.52%     97.49% # Number of insts commited each cycle (Count)
system.cpu0.commit.numCommittedDist::3         754288      1.21%     98.71% # Number of insts commited each cycle (Count)
system.cpu0.commit.numCommittedDist::4         128778      0.21%     98.91% # Number of insts commited each cycle (Count)
system.cpu0.commit.numCommittedDist::5         213013      0.34%     99.26% # Number of insts commited each cycle (Count)
system.cpu0.commit.numCommittedDist::6          99384      0.16%     99.42% # Number of insts commited each cycle (Count)
system.cpu0.commit.numCommittedDist::7          26310      0.04%     99.46% # Number of insts commited each cycle (Count)
system.cpu0.commit.numCommittedDist::8         336470      0.54%    100.00% # Number of insts commited each cycle (Count)
system.cpu0.commit.numCommittedDist::overflows            0      0.00%    100.00% # Number of insts commited each cycle (Count)
system.cpu0.commit.numCommittedDist::min_value            0                       # Number of insts commited each cycle (Count)
system.cpu0.commit.numCommittedDist::max_value            8                       # Number of insts commited each cycle (Count)
system.cpu0.commit.numCommittedDist::total     62171122                       # Number of insts commited each cycle (Count)
system.cpu0.commit.instsCommitted             4889053                       # Number of instructions committed (Count)
system.cpu0.commit.opsCommitted               8968578                       # Number of ops (including micro ops) committed (Count)
system.cpu0.commit.memRefs                    2923151                       # Number of memory references committed (Count)
system.cpu0.commit.loads                      1523778                       # Number of loads committed (Count)
system.cpu0.commit.amos                             0                       # Number of atomic instructions committed (Count)
system.cpu0.commit.membars                        100                       # Number of memory barriers committed (Count)
system.cpu0.commit.branches                    736421                       # Number of branches committed (Count)
system.cpu0.commit.vectorInstructions               0                       # Number of committed Vector instructions. (Count)
system.cpu0.commit.floating                    699566                       # Number of committed floating point instructions. (Count)
system.cpu0.commit.integer                    8464947                       # Number of committed integer instructions. (Count)
system.cpu0.commit.functionCalls               100750                       # Number of function calls committed. (Count)
system.cpu0.commit.committedInstType_0::No_OpClass       200789      2.24%      2.24% # Class of committed instruction (Count)
system.cpu0.commit.committedInstType_0::IntAlu      5638438     62.87%     65.11% # Class of committed instruction (Count)
system.cpu0.commit.committedInstType_0::IntMult           19      0.00%     65.11% # Class of committed instruction (Count)
system.cpu0.commit.committedInstType_0::IntDiv         2327      0.03%     65.13% # Class of committed instruction (Count)
system.cpu0.commit.committedInstType_0::FloatAdd          642      0.01%     65.14% # Class of committed instruction (Count)
system.cpu0.commit.committedInstType_0::FloatCmp            0      0.00%     65.14% # Class of committed instruction (Count)
system.cpu0.commit.committedInstType_0::FloatCvt           32      0.00%     65.14% # Class of committed instruction (Count)
system.cpu0.commit.committedInstType_0::FloatMult            0      0.00%     65.14% # Class of committed instruction (Count)
system.cpu0.commit.committedInstType_0::FloatMultAcc            0      0.00%     65.14% # Class of committed instruction (Count)
system.cpu0.commit.committedInstType_0::FloatDiv            0      0.00%     65.14% # Class of committed instruction (Count)
system.cpu0.commit.committedInstType_0::FloatMisc            0      0.00%     65.14% # Class of committed instruction (Count)
system.cpu0.commit.committedInstType_0::FloatSqrt            0      0.00%     65.14% # Class of committed instruction (Count)
system.cpu0.commit.committedInstType_0::SimdAdd          788      0.01%     65.15% # Class of committed instruction (Count)
system.cpu0.commit.committedInstType_0::SimdAddAcc            0      0.00%     65.15% # Class of committed instruction (Count)
system.cpu0.commit.committedInstType_0::SimdAlu       198308      2.21%     67.36% # Class of committed instruction (Count)
system.cpu0.commit.committedInstType_0::SimdCmp            6      0.00%     67.36% # Class of committed instruction (Count)
system.cpu0.commit.committedInstType_0::SimdCvt         1830      0.02%     67.38% # Class of committed instruction (Count)
system.cpu0.commit.committedInstType_0::SimdMisc         1766      0.02%     67.40% # Class of committed instruction (Count)
system.cpu0.commit.committedInstType_0::SimdMult            0      0.00%     67.40% # Class of committed instruction (Count)
system.cpu0.commit.committedInstType_0::SimdMultAcc            0      0.00%     67.40% # Class of committed instruction (Count)
system.cpu0.commit.committedInstType_0::SimdShift          482      0.01%     67.41% # Class of committed instruction (Count)
system.cpu0.commit.committedInstType_0::SimdShiftAcc            0      0.00%     67.41% # Class of committed instruction (Count)
system.cpu0.commit.committedInstType_0::SimdDiv            0      0.00%     67.41% # Class of committed instruction (Count)
system.cpu0.commit.committedInstType_0::SimdSqrt            0      0.00%     67.41% # Class of committed instruction (Count)
system.cpu0.commit.committedInstType_0::SimdFloatAdd            0      0.00%     67.41% # Class of committed instruction (Count)
system.cpu0.commit.committedInstType_0::SimdFloatAlu            0      0.00%     67.41% # Class of committed instruction (Count)
system.cpu0.commit.committedInstType_0::SimdFloatCmp            0      0.00%     67.41% # Class of committed instruction (Count)
system.cpu0.commit.committedInstType_0::SimdFloatCvt            0      0.00%     67.41% # Class of committed instruction (Count)
system.cpu0.commit.committedInstType_0::SimdFloatDiv            0      0.00%     67.41% # Class of committed instruction (Count)
system.cpu0.commit.committedInstType_0::SimdFloatMisc            0      0.00%     67.41% # Class of committed instruction (Count)
system.cpu0.commit.committedInstType_0::SimdFloatMult            0      0.00%     67.41% # Class of committed instruction (Count)
system.cpu0.commit.committedInstType_0::SimdFloatMultAcc            0      0.00%     67.41% # Class of committed instruction (Count)
system.cpu0.commit.committedInstType_0::SimdFloatSqrt            0      0.00%     67.41% # Class of committed instruction (Count)
system.cpu0.commit.committedInstType_0::SimdReduceAdd            0      0.00%     67.41% # Class of committed instruction (Count)
system.cpu0.commit.committedInstType_0::SimdReduceAlu            0      0.00%     67.41% # Class of committed instruction (Count)
system.cpu0.commit.committedInstType_0::SimdReduceCmp            0      0.00%     67.41% # Class of committed instruction (Count)
system.cpu0.commit.committedInstType_0::SimdFloatReduceAdd            0      0.00%     67.41% # Class of committed instruction (Count)
system.cpu0.commit.committedInstType_0::SimdFloatReduceCmp            0      0.00%     67.41% # Class of committed instruction (Count)
system.cpu0.commit.committedInstType_0::SimdAes            0      0.00%     67.41% # Class of committed instruction (Count)
system.cpu0.commit.committedInstType_0::SimdAesMix            0      0.00%     67.41% # Class of committed instruction (Count)
system.cpu0.commit.committedInstType_0::SimdSha1Hash            0      0.00%     67.41% # Class of committed instruction (Count)
system.cpu0.commit.committedInstType_0::SimdSha1Hash2            0      0.00%     67.41% # Class of committed instruction (Count)
system.cpu0.commit.committedInstType_0::SimdSha256Hash            0      0.00%     67.41% # Class of committed instruction (Count)
system.cpu0.commit.committedInstType_0::SimdSha256Hash2            0      0.00%     67.41% # Class of committed instruction (Count)
system.cpu0.commit.committedInstType_0::SimdShaSigma2            0      0.00%     67.41% # Class of committed instruction (Count)
system.cpu0.commit.committedInstType_0::SimdShaSigma3            0      0.00%     67.41% # Class of committed instruction (Count)
system.cpu0.commit.committedInstType_0::SimdPredAlu            0      0.00%     67.41% # Class of committed instruction (Count)
system.cpu0.commit.committedInstType_0::MemRead      1521732     16.97%     84.37% # Class of committed instruction (Count)
system.cpu0.commit.committedInstType_0::MemWrite       906246     10.10%     94.48% # Class of committed instruction (Count)
system.cpu0.commit.committedInstType_0::FloatMemRead         2046      0.02%     94.50% # Class of committed instruction (Count)
system.cpu0.commit.committedInstType_0::FloatMemWrite       493127      5.50%    100.00% # Class of committed instruction (Count)
system.cpu0.commit.committedInstType_0::IprAccess            0      0.00%    100.00% # Class of committed instruction (Count)
system.cpu0.commit.committedInstType_0::InstPrefetch            0      0.00%    100.00% # Class of committed instruction (Count)
system.cpu0.commit.committedInstType_0::total      8968578                       # Class of committed instruction (Count)
system.cpu0.commit.commitEligibleSamples       336470                       # number cycles where commit BW limit reached (Cycle)
system.cpu0.decode.idleCycles                  518081                       # Number of cycles decode is idle (Cycle)
system.cpu0.decode.blockedCycles             60475745                       # Number of cycles decode is blocked (Cycle)
system.cpu0.decode.runCycles                   669879                       # Number of cycles decode is running (Cycle)
system.cpu0.decode.unblockCycles               551045                       # Number of cycles decode is unblocking (Cycle)
system.cpu0.decode.squashCycles                  6673                       # Number of cycles decode is squashing (Cycle)
system.cpu0.decode.branchResolved              437561                       # Number of times decode resolved a branch (Count)
system.cpu0.decode.branchMispred                  801                       # Number of times decode detected a branch misprediction (Count)
system.cpu0.decode.decodedInsts               9394584                       # Number of instructions handled by decode (Count)
system.cpu0.decode.squashedInsts                 4103                       # Number of squashed instructions handled by decode (Count)
system.cpu0.fetch.icacheStallCycles            821310                       # Number of cycles fetch is stalled on an Icache miss (Cycle)
system.cpu0.fetch.insts                       5167364                       # Number of instructions fetch has processed (Count)
system.cpu0.fetch.branches                     783705                       # Number of branches that fetch encountered (Count)
system.cpu0.fetch.predictedBranches            648453                       # Number of branches that fetch has predicted taken (Count)
system.cpu0.fetch.cycles                     61264027                       # Number of cycles fetch has run and was not squashing or blocked (Cycle)
system.cpu0.fetch.squashCycles                  14916                       # Number of cycles fetch has spent squashing (Cycle)
system.cpu0.fetch.miscStallCycles                6099                       # Number of cycles fetch has spent waiting on interrupts, or bad addresses, or out of MSHRs (Cycle)
system.cpu0.fetch.pendingTrapStallCycles        13312                       # Number of stall cycles due to pending traps (Cycle)
system.cpu0.fetch.icacheWaitRetryStallCycles       109217                       # Number of stall cycles due to full MSHR (Cycle)
system.cpu0.fetch.cacheLines                   647365                       # Number of cache lines fetched (Count)
system.cpu0.fetch.icacheSquashes                 1807                       # Number of outstanding Icache misses that were squashed (Count)
system.cpu0.fetch.nisnDist::samples          62221423                       # Number of instructions fetched each cycle (Total) (Count)
system.cpu0.fetch.nisnDist::mean             0.152520                       # Number of instructions fetched each cycle (Total) (Count)
system.cpu0.fetch.nisnDist::stdev            0.993725                       # Number of instructions fetched each cycle (Total) (Count)
system.cpu0.fetch.nisnDist::underflows              0      0.00%      0.00% # Number of instructions fetched each cycle (Total) (Count)
system.cpu0.fetch.nisnDist::0                60574426     97.35%     97.35% # Number of instructions fetched each cycle (Total) (Count)
system.cpu0.fetch.nisnDist::1                   44843      0.07%     97.43% # Number of instructions fetched each cycle (Total) (Count)
system.cpu0.fetch.nisnDist::2                  116032      0.19%     97.61% # Number of instructions fetched each cycle (Total) (Count)
system.cpu0.fetch.nisnDist::3                  169500      0.27%     97.88% # Number of instructions fetched each cycle (Total) (Count)
system.cpu0.fetch.nisnDist::4                  238265      0.38%     98.27% # Number of instructions fetched each cycle (Total) (Count)
system.cpu0.fetch.nisnDist::5                  143614      0.23%     98.50% # Number of instructions fetched each cycle (Total) (Count)
system.cpu0.fetch.nisnDist::6                  148325      0.24%     98.74% # Number of instructions fetched each cycle (Total) (Count)
system.cpu0.fetch.nisnDist::7                  147804      0.24%     98.97% # Number of instructions fetched each cycle (Total) (Count)
system.cpu0.fetch.nisnDist::8                  638614      1.03%    100.00% # Number of instructions fetched each cycle (Total) (Count)
system.cpu0.fetch.nisnDist::overflows               0      0.00%    100.00% # Number of instructions fetched each cycle (Total) (Count)
system.cpu0.fetch.nisnDist::min_value               0                       # Number of instructions fetched each cycle (Total) (Count)
system.cpu0.fetch.nisnDist::max_value               8                       # Number of instructions fetched each cycle (Total) (Count)
system.cpu0.fetch.nisnDist::total            62221423                       # Number of instructions fetched each cycle (Total) (Count)
system.cpu0.fetch.branchRate                 0.012443                       # Number of branch fetches per cycle (Ratio)
system.cpu0.fetch.rate                       0.082044                       # Number of inst fetches per cycle ((Count/Cycle))
system.cpu0.iew.idleCycles                          0                       # Number of cycles IEW is idle (Cycle)
system.cpu0.iew.squashCycles                     6673                       # Number of cycles IEW is squashing (Cycle)
system.cpu0.iew.blockCycles                    684511                       # Number of cycles IEW is blocking (Cycle)
system.cpu0.iew.unblockCycles                 5174801                       # Number of cycles IEW is unblocking (Cycle)
system.cpu0.iew.dispatchedInsts               9343989                       # Number of instructions dispatched to IQ (Count)
system.cpu0.iew.dispSquashedInsts                 490                       # Number of squashed instructions skipped by dispatch (Count)
system.cpu0.iew.dispLoadInsts                 1579384                       # Number of dispatched load instructions (Count)
system.cpu0.iew.dispStoreInsts                1446079                       # Number of dispatched store instructions (Count)
system.cpu0.iew.dispNonSpecInsts                  146                       # Number of dispatched non-speculative instructions (Count)
system.cpu0.iew.iqFullEvents                     1324                       # Number of times the IQ has become full, causing a stall (Count)
system.cpu0.iew.lsqFullEvents                 5173934                       # Number of times the LSQ has become full, causing a stall (Count)
system.cpu0.iew.memOrderViolationEvents           141                       # Number of memory order violations (Count)
system.cpu0.iew.predictedTakenIncorrect           819                       # Number of branches that were predicted taken incorrectly (Count)
system.cpu0.iew.predictedNotTakenIncorrect         5050                       # Number of branches that were predicted not taken incorrectly (Count)
system.cpu0.iew.branchMispredicts                5869                       # Number of branch mispredicts detected at execute (Count)
system.cpu0.iew.instsToCommit                 9273465                       # Cumulative count of insts sent to commit (Count)
system.cpu0.iew.writebackCount                9251018                       # Cumulative count of insts written-back (Count)
system.cpu0.iew.producerInst                  5645573                       # Number of instructions producing a value (Count)
system.cpu0.iew.consumerInst                  8702522                       # Number of instructions consuming a value (Count)
system.cpu0.iew.wbRate                       0.146881                       # Insts written-back per cycle ((Count/Cycle))
system.cpu0.iew.wbFanout                     0.648728                       # Average fanout of values written-back ((Count/Count))
system.cpu0.interrupts.clk_domain.clock          8000                       # Clock period in ticks (Tick)
system.cpu0.lsq0.forwLoads                     905346                       # Number of loads that had data forwarded from stores (Count)
system.cpu0.lsq0.squashedLoads                  55606                       # Number of loads squashed (Count)
system.cpu0.lsq0.ignoredResponses                  23                       # Number of memory responses ignored because the instruction is squashed (Count)
system.cpu0.lsq0.memOrderViolation                141                       # Number of memory ordering violations (Count)
system.cpu0.lsq0.squashedStores                 46706                       # Number of stores squashed (Count)
system.cpu0.lsq0.rescheduledLoads                   4                       # Number of loads that were rescheduled (Count)
system.cpu0.lsq0.blockedByCache                   881                       # Number of times an access to memory failed due to the cache being blocked (Count)
system.cpu0.lsq0.loadToUse::samples           1523778                       # Distribution of cycle latency between the first time a load is issued and its completion (Unspecified)
system.cpu0.lsq0.loadToUse::mean             6.082618                       # Distribution of cycle latency between the first time a load is issued and its completion (Unspecified)
system.cpu0.lsq0.loadToUse::stdev           58.285950                       # Distribution of cycle latency between the first time a load is issued and its completion (Unspecified)
system.cpu0.lsq0.loadToUse::0-9               1516887     99.55%     99.55% # Distribution of cycle latency between the first time a load is issued and its completion (Unspecified)
system.cpu0.lsq0.loadToUse::10-19                   4      0.00%     99.55% # Distribution of cycle latency between the first time a load is issued and its completion (Unspecified)
system.cpu0.lsq0.loadToUse::20-29                   8      0.00%     99.55% # Distribution of cycle latency between the first time a load is issued and its completion (Unspecified)
system.cpu0.lsq0.loadToUse::30-39                  12      0.00%     99.55% # Distribution of cycle latency between the first time a load is issued and its completion (Unspecified)
system.cpu0.lsq0.loadToUse::40-49                  16      0.00%     99.55% # Distribution of cycle latency between the first time a load is issued and its completion (Unspecified)
system.cpu0.lsq0.loadToUse::50-59                  24      0.00%     99.55% # Distribution of cycle latency between the first time a load is issued and its completion (Unspecified)
system.cpu0.lsq0.loadToUse::60-69                  10      0.00%     99.55% # Distribution of cycle latency between the first time a load is issued and its completion (Unspecified)
system.cpu0.lsq0.loadToUse::70-79                  16      0.00%     99.55% # Distribution of cycle latency between the first time a load is issued and its completion (Unspecified)
system.cpu0.lsq0.loadToUse::80-89                   9      0.00%     99.55% # Distribution of cycle latency between the first time a load is issued and its completion (Unspecified)
system.cpu0.lsq0.loadToUse::90-99                   8      0.00%     99.55% # Distribution of cycle latency between the first time a load is issued and its completion (Unspecified)
system.cpu0.lsq0.loadToUse::100-109                 6      0.00%     99.56% # Distribution of cycle latency between the first time a load is issued and its completion (Unspecified)
system.cpu0.lsq0.loadToUse::110-119                 6      0.00%     99.56% # Distribution of cycle latency between the first time a load is issued and its completion (Unspecified)
system.cpu0.lsq0.loadToUse::120-129                 5      0.00%     99.56% # Distribution of cycle latency between the first time a load is issued and its completion (Unspecified)
system.cpu0.lsq0.loadToUse::130-139                 6      0.00%     99.56% # Distribution of cycle latency between the first time a load is issued and its completion (Unspecified)
system.cpu0.lsq0.loadToUse::140-149                 5      0.00%     99.56% # Distribution of cycle latency between the first time a load is issued and its completion (Unspecified)
system.cpu0.lsq0.loadToUse::150-159                 8      0.00%     99.56% # Distribution of cycle latency between the first time a load is issued and its completion (Unspecified)
system.cpu0.lsq0.loadToUse::160-169                 9      0.00%     99.56% # Distribution of cycle latency between the first time a load is issued and its completion (Unspecified)
system.cpu0.lsq0.loadToUse::170-179                 5      0.00%     99.56% # Distribution of cycle latency between the first time a load is issued and its completion (Unspecified)
system.cpu0.lsq0.loadToUse::180-189                43      0.00%     99.56% # Distribution of cycle latency between the first time a load is issued and its completion (Unspecified)
system.cpu0.lsq0.loadToUse::190-199                 5      0.00%     99.56% # Distribution of cycle latency between the first time a load is issued and its completion (Unspecified)
system.cpu0.lsq0.loadToUse::200-209                 9      0.00%     99.56% # Distribution of cycle latency between the first time a load is issued and its completion (Unspecified)
system.cpu0.lsq0.loadToUse::210-219                 8      0.00%     99.56% # Distribution of cycle latency between the first time a load is issued and its completion (Unspecified)
system.cpu0.lsq0.loadToUse::220-229                 1      0.00%     99.56% # Distribution of cycle latency between the first time a load is issued and its completion (Unspecified)
system.cpu0.lsq0.loadToUse::230-239                11      0.00%     99.56% # Distribution of cycle latency between the first time a load is issued and its completion (Unspecified)
system.cpu0.lsq0.loadToUse::240-249                49      0.00%     99.57% # Distribution of cycle latency between the first time a load is issued and its completion (Unspecified)
system.cpu0.lsq0.loadToUse::250-259                11      0.00%     99.57% # Distribution of cycle latency between the first time a load is issued and its completion (Unspecified)
system.cpu0.lsq0.loadToUse::260-269                 3      0.00%     99.57% # Distribution of cycle latency between the first time a load is issued and its completion (Unspecified)
system.cpu0.lsq0.loadToUse::270-279                 8      0.00%     99.57% # Distribution of cycle latency between the first time a load is issued and its completion (Unspecified)
system.cpu0.lsq0.loadToUse::280-289                10      0.00%     99.57% # Distribution of cycle latency between the first time a load is issued and its completion (Unspecified)
system.cpu0.lsq0.loadToUse::290-299                 6      0.00%     99.57% # Distribution of cycle latency between the first time a load is issued and its completion (Unspecified)
system.cpu0.lsq0.loadToUse::overflows            6570      0.43%    100.00% # Distribution of cycle latency between the first time a load is issued and its completion (Unspecified)
system.cpu0.lsq0.loadToUse::min_value               2                       # Distribution of cycle latency between the first time a load is issued and its completion (Unspecified)
system.cpu0.lsq0.loadToUse::max_value            2466                       # Distribution of cycle latency between the first time a load is issued and its completion (Unspecified)
system.cpu0.lsq0.loadToUse::total             1523778                       # Distribution of cycle latency between the first time a load is issued and its completion (Unspecified)
system.cpu0.mmu.dtb.rdAccesses                1572101                       # TLB accesses on read requests (Count)
system.cpu0.mmu.dtb.wrAccesses                1442492                       # TLB accesses on write requests (Count)
system.cpu0.mmu.dtb.rdMisses                     1039                       # TLB misses on read requests (Count)
system.cpu0.mmu.dtb.wrMisses                    20176                       # TLB misses on write requests (Count)
system.cpu0.mmu.dtb.walker.power_state.pwrStateResidencyTicks::UNDEFINED  31573255000                       # Cumulative time (in ticks) in various power states (Tick)
system.cpu0.mmu.itb.rdAccesses                      0                       # TLB accesses on read requests (Count)
system.cpu0.mmu.itb.wrAccesses                 649091                       # TLB accesses on write requests (Count)
system.cpu0.mmu.itb.rdMisses                        0                       # TLB misses on read requests (Count)
system.cpu0.mmu.itb.wrMisses                     2209                       # TLB misses on write requests (Count)
system.cpu0.mmu.itb.walker.power_state.pwrStateResidencyTicks::UNDEFINED  31573255000                       # Cumulative time (in ticks) in various power states (Tick)
system.cpu0.power_state.pwrStateResidencyTicks::ON  31573255000                       # Cumulative time (in ticks) in various power states (Tick)
system.cpu0.rename.squashCycles                  6673                       # Number of cycles rename is squashing (Cycle)
system.cpu0.rename.idleCycles                  728795                       # Number of cycles rename is idle (Cycle)
system.cpu0.rename.blockCycles                5950398                       # Number of cycles rename is blocking (Cycle)
system.cpu0.rename.serializeStallCycles          5928                       # count of cycles rename stalled for serializing inst (Cycle)
system.cpu0.rename.runCycles                  1008022                       # Number of cycles rename is running (Cycle)
system.cpu0.rename.unblockCycles             54521607                       # Number of cycles rename is unblocking (Cycle)
system.cpu0.rename.renamedInsts               9371888                       # Number of instructions processed by rename (Count)
system.cpu0.rename.ROBFullEvents                13085                       # Number of times rename has blocked due to ROB full (Count)
system.cpu0.rename.IQFullEvents                 20800                       # Number of times rename has blocked due to IQ full (Count)
system.cpu0.rename.LQFullEvents                 25591                       # Number of times rename has blocked due to LQ full (Count)
system.cpu0.rename.SQFullEvents              54415485                       # Number of times rename has blocked due to SQ full (Count)
system.cpu0.rename.renamedOperands           14027374                       # Number of destination operands rename has renamed (Count)
system.cpu0.rename.lookups                   29223141                       # Number of register rename lookups that rename has made (Count)
system.cpu0.rename.intLookups                11531555                       # Number of integer rename lookups (Count)
system.cpu0.rename.fpLookups                   954016                       # Number of floating rename lookups (Count)
system.cpu0.rename.committedMaps             13380672                       # Number of HB maps that are committed (Count)
system.cpu0.rename.undoneMaps                  646702                       # Number of HB maps that are undone due to squashing (Count)
system.cpu0.rename.serializing                     77                       # count of serializing insts renamed (Count)
system.cpu0.rename.tempSerializing                 65                       # count of temporary serializing insts renamed (Count)
system.cpu0.rename.skidInsts                  2933850                       # count of insts added to the skid buffer (Count)
system.cpu0.rob.reads                        71145573                       # The number of ROB reads (Count)
system.cpu0.rob.writes                       18708199                       # The number of ROB writes (Count)
system.cpu0.thread_0.numInsts                 4889053                       # Number of Instructions committed (Count)
system.cpu0.thread_0.numOps                   8968578                       # Number of Ops committed (Count)
system.cpu0.thread_0.numMemRefs                     0                       # Number of Memory References (Count)
system.cpu0.workload.numSyscalls                   56                       # Number of system calls (Count)
system.cpu1.numCycles                        60722732                       # Number of cpu cycles simulated (Cycle)
system.cpu1.numWorkItemsStarted                     0                       # Number of work items this cpu started (Count)
system.cpu1.numWorkItemsCompleted                   0                       # Number of work items this cpu completed (Count)
system.cpu1.instsAdded                        9342765                       # Number of instructions added to the IQ (excludes non-spec) (Count)
system.cpu1.nonSpecInstsAdded                     399                       # Number of non-speculative instructions added to the IQ (Count)
system.cpu1.instsIssued                       9285107                       # Number of instructions issued (Count)
system.cpu1.squashedInstsIssued                   764                       # Number of squashed instructions issued (Count)
system.cpu1.squashedInstsExamined              374586                       # Number of squashed instructions iterated over during squash; mainly for profiling (Count)
system.cpu1.squashedOperandsExamined           416941                       # Number of squashed operands that are examined and possibly removed from graph (Count)
system.cpu1.squashedNonSpecRemoved                231                       # Number of squashed non-spec instructions that were removed (Count)
system.cpu1.numIssuedDist::samples           60000924                       # Number of insts issued each cycle (Count)
system.cpu1.numIssuedDist::mean              0.154749                       # Number of insts issued each cycle (Count)
system.cpu1.numIssuedDist::stdev             0.787353                       # Number of insts issued each cycle (Count)
system.cpu1.numIssuedDist::underflows               0      0.00%      0.00% # Number of insts issued each cycle (Count)
system.cpu1.numIssuedDist::0                 57023160     95.04%     95.04% # Number of insts issued each cycle (Count)
system.cpu1.numIssuedDist::1                   823782      1.37%     96.41% # Number of insts issued each cycle (Count)
system.cpu1.numIssuedDist::2                   356121      0.59%     97.00% # Number of insts issued each cycle (Count)
system.cpu1.numIssuedDist::3                   525885      0.88%     97.88% # Number of insts issued each cycle (Count)
system.cpu1.numIssuedDist::4                   693936      1.16%     99.04% # Number of insts issued each cycle (Count)
system.cpu1.numIssuedDist::5                   279217      0.47%     99.50% # Number of insts issued each cycle (Count)
system.cpu1.numIssuedDist::6                   154208      0.26%     99.76% # Number of insts issued each cycle (Count)
system.cpu1.numIssuedDist::7                    82569      0.14%     99.90% # Number of insts issued each cycle (Count)
system.cpu1.numIssuedDist::8                    62046      0.10%    100.00% # Number of insts issued each cycle (Count)
system.cpu1.numIssuedDist::overflows                0      0.00%    100.00% # Number of insts issued each cycle (Count)
system.cpu1.numIssuedDist::min_value                0                       # Number of insts issued each cycle (Count)
system.cpu1.numIssuedDist::max_value                8                       # Number of insts issued each cycle (Count)
system.cpu1.numIssuedDist::total             60000924                       # Number of insts issued each cycle (Count)
system.cpu1.statFuBusy::No_OpClass                  0      0.00%      0.00% # attempts to use FU when none available (Count)
system.cpu1.statFuBusy::IntAlu                   4520      8.95%      8.95% # attempts to use FU when none available (Count)
system.cpu1.statFuBusy::IntMult                     0      0.00%      8.95% # attempts to use FU when none available (Count)
system.cpu1.statFuBusy::IntDiv                      0      0.00%      8.95% # attempts to use FU when none available (Count)
system.cpu1.statFuBusy::FloatAdd                    0      0.00%      8.95% # attempts to use FU when none available (Count)
system.cpu1.statFuBusy::FloatCmp                    0      0.00%      8.95% # attempts to use FU when none available (Count)
system.cpu1.statFuBusy::FloatCvt                    0      0.00%      8.95% # attempts to use FU when none available (Count)
system.cpu1.statFuBusy::FloatMult                   0      0.00%      8.95% # attempts to use FU when none available (Count)
system.cpu1.statFuBusy::FloatMultAcc                0      0.00%      8.95% # attempts to use FU when none available (Count)
system.cpu1.statFuBusy::FloatDiv                    0      0.00%      8.95% # attempts to use FU when none available (Count)
system.cpu1.statFuBusy::FloatMisc                   0      0.00%      8.95% # attempts to use FU when none available (Count)
system.cpu1.statFuBusy::FloatSqrt                   0      0.00%      8.95% # attempts to use FU when none available (Count)
system.cpu1.statFuBusy::SimdAdd                     2      0.00%      8.96% # attempts to use FU when none available (Count)
system.cpu1.statFuBusy::SimdAddAcc                  0      0.00%      8.96% # attempts to use FU when none available (Count)
system.cpu1.statFuBusy::SimdAlu                    29      0.06%      9.02% # attempts to use FU when none available (Count)
system.cpu1.statFuBusy::SimdCmp                     0      0.00%      9.02% # attempts to use FU when none available (Count)
system.cpu1.statFuBusy::SimdCvt                   103      0.20%      9.22% # attempts to use FU when none available (Count)
system.cpu1.statFuBusy::SimdMisc                    2      0.00%      9.22% # attempts to use FU when none available (Count)
system.cpu1.statFuBusy::SimdMult                    0      0.00%      9.22% # attempts to use FU when none available (Count)
system.cpu1.statFuBusy::SimdMultAcc                 0      0.00%      9.22% # attempts to use FU when none available (Count)
system.cpu1.statFuBusy::SimdShift                  71      0.14%      9.36% # attempts to use FU when none available (Count)
system.cpu1.statFuBusy::SimdShiftAcc                0      0.00%      9.36% # attempts to use FU when none available (Count)
system.cpu1.statFuBusy::SimdDiv                     0      0.00%      9.36% # attempts to use FU when none available (Count)
system.cpu1.statFuBusy::SimdSqrt                    0      0.00%      9.36% # attempts to use FU when none available (Count)
system.cpu1.statFuBusy::SimdFloatAdd                0      0.00%      9.36% # attempts to use FU when none available (Count)
system.cpu1.statFuBusy::SimdFloatAlu                0      0.00%      9.36% # attempts to use FU when none available (Count)
system.cpu1.statFuBusy::SimdFloatCmp                0      0.00%      9.36% # attempts to use FU when none available (Count)
system.cpu1.statFuBusy::SimdFloatCvt                0      0.00%      9.36% # attempts to use FU when none available (Count)
system.cpu1.statFuBusy::SimdFloatDiv                0      0.00%      9.36% # attempts to use FU when none available (Count)
system.cpu1.statFuBusy::SimdFloatMisc               0      0.00%      9.36% # attempts to use FU when none available (Count)
system.cpu1.statFuBusy::SimdFloatMult               0      0.00%      9.36% # attempts to use FU when none available (Count)
system.cpu1.statFuBusy::SimdFloatMultAcc            0      0.00%      9.36% # attempts to use FU when none available (Count)
system.cpu1.statFuBusy::SimdFloatSqrt               0      0.00%      9.36% # attempts to use FU when none available (Count)
system.cpu1.statFuBusy::SimdReduceAdd               0      0.00%      9.36% # attempts to use FU when none available (Count)
system.cpu1.statFuBusy::SimdReduceAlu               0      0.00%      9.36% # attempts to use FU when none available (Count)
system.cpu1.statFuBusy::SimdReduceCmp               0      0.00%      9.36% # attempts to use FU when none available (Count)
system.cpu1.statFuBusy::SimdFloatReduceAdd            0      0.00%      9.36% # attempts to use FU when none available (Count)
system.cpu1.statFuBusy::SimdFloatReduceCmp            0      0.00%      9.36% # attempts to use FU when none available (Count)
system.cpu1.statFuBusy::SimdAes                     0      0.00%      9.36% # attempts to use FU when none available (Count)
system.cpu1.statFuBusy::SimdAesMix                  0      0.00%      9.36% # attempts to use FU when none available (Count)
system.cpu1.statFuBusy::SimdSha1Hash                0      0.00%      9.36% # attempts to use FU when none available (Count)
system.cpu1.statFuBusy::SimdSha1Hash2               0      0.00%      9.36% # attempts to use FU when none available (Count)
system.cpu1.statFuBusy::SimdSha256Hash              0      0.00%      9.36% # attempts to use FU when none available (Count)
system.cpu1.statFuBusy::SimdSha256Hash2             0      0.00%      9.36% # attempts to use FU when none available (Count)
system.cpu1.statFuBusy::SimdShaSigma2               0      0.00%      9.36% # attempts to use FU when none available (Count)
system.cpu1.statFuBusy::SimdShaSigma3               0      0.00%      9.36% # attempts to use FU when none available (Count)
system.cpu1.statFuBusy::SimdPredAlu                 0      0.00%      9.36% # attempts to use FU when none available (Count)
system.cpu1.statFuBusy::MemRead                  4077      8.08%     17.44% # attempts to use FU when none available (Count)
system.cpu1.statFuBusy::MemWrite                38623     76.52%     93.96% # attempts to use FU when none available (Count)
system.cpu1.statFuBusy::FloatMemRead               71      0.14%     94.10% # attempts to use FU when none available (Count)
system.cpu1.statFuBusy::FloatMemWrite            2978      5.90%    100.00% # attempts to use FU when none available (Count)
system.cpu1.statFuBusy::IprAccess                   0      0.00%    100.00% # attempts to use FU when none available (Count)
system.cpu1.statFuBusy::InstPrefetch                0      0.00%    100.00% # attempts to use FU when none available (Count)
system.cpu1.statIssuedInstType_0::No_OpClass       209511      2.26%      2.26% # Number of instructions issued per FU type, per thread (Count)
system.cpu1.statIssuedInstType_0::IntAlu      5841165     62.91%     65.17% # Number of instructions issued per FU type, per thread (Count)
system.cpu1.statIssuedInstType_0::IntMult           27      0.00%     65.17% # Number of instructions issued per FU type, per thread (Count)
system.cpu1.statIssuedInstType_0::IntDiv         2517      0.03%     65.19% # Number of instructions issued per FU type, per thread (Count)
system.cpu1.statIssuedInstType_0::FloatAdd         1112      0.01%     65.20% # Number of instructions issued per FU type, per thread (Count)
system.cpu1.statIssuedInstType_0::FloatCmp            0      0.00%     65.20% # Number of instructions issued per FU type, per thread (Count)
system.cpu1.statIssuedInstType_0::FloatCvt           32      0.00%     65.21% # Number of instructions issued per FU type, per thread (Count)
system.cpu1.statIssuedInstType_0::FloatMult            0      0.00%     65.21% # Number of instructions issued per FU type, per thread (Count)
system.cpu1.statIssuedInstType_0::FloatMultAcc            0      0.00%     65.21% # Number of instructions issued per FU type, per thread (Count)
system.cpu1.statIssuedInstType_0::FloatDiv            0      0.00%     65.21% # Number of instructions issued per FU type, per thread (Count)
system.cpu1.statIssuedInstType_0::FloatMisc            0      0.00%     65.21% # Number of instructions issued per FU type, per thread (Count)
system.cpu1.statIssuedInstType_0::FloatSqrt            0      0.00%     65.21% # Number of instructions issued per FU type, per thread (Count)
system.cpu1.statIssuedInstType_0::SimdAdd         1234      0.01%     65.22% # Number of instructions issued per FU type, per thread (Count)
system.cpu1.statIssuedInstType_0::SimdAddAcc            0      0.00%     65.22% # Number of instructions issued per FU type, per thread (Count)
system.cpu1.statIssuedInstType_0::SimdAlu       203535      2.19%     67.41% # Number of instructions issued per FU type, per thread (Count)
system.cpu1.statIssuedInstType_0::SimdCmp            6      0.00%     67.41% # Number of instructions issued per FU type, per thread (Count)
system.cpu1.statIssuedInstType_0::SimdCvt         3144      0.03%     67.44% # Number of instructions issued per FU type, per thread (Count)
system.cpu1.statIssuedInstType_0::SimdMisc         2310      0.02%     67.47% # Number of instructions issued per FU type, per thread (Count)
system.cpu1.statIssuedInstType_0::SimdMult            0      0.00%     67.47% # Number of instructions issued per FU type, per thread (Count)
system.cpu1.statIssuedInstType_0::SimdMultAcc            0      0.00%     67.47% # Number of instructions issued per FU type, per thread (Count)
system.cpu1.statIssuedInstType_0::SimdShift         1199      0.01%     67.48% # Number of instructions issued per FU type, per thread (Count)
system.cpu1.statIssuedInstType_0::SimdShiftAcc            0      0.00%     67.48% # Number of instructions issued per FU type, per thread (Count)
system.cpu1.statIssuedInstType_0::SimdDiv            0      0.00%     67.48% # Number of instructions issued per FU type, per thread (Count)
system.cpu1.statIssuedInstType_0::SimdSqrt            0      0.00%     67.48% # Number of instructions issued per FU type, per thread (Count)
system.cpu1.statIssuedInstType_0::SimdFloatAdd            0      0.00%     67.48% # Number of instructions issued per FU type, per thread (Count)
system.cpu1.statIssuedInstType_0::SimdFloatAlu            0      0.00%     67.48% # Number of instructions issued per FU type, per thread (Count)
system.cpu1.statIssuedInstType_0::SimdFloatCmp            0      0.00%     67.48% # Number of instructions issued per FU type, per thread (Count)
system.cpu1.statIssuedInstType_0::SimdFloatCvt            0      0.00%     67.48% # Number of instructions issued per FU type, per thread (Count)
system.cpu1.statIssuedInstType_0::SimdFloatDiv            0      0.00%     67.48% # Number of instructions issued per FU type, per thread (Count)
system.cpu1.statIssuedInstType_0::SimdFloatMisc            0      0.00%     67.48% # Number of instructions issued per FU type, per thread (Count)
system.cpu1.statIssuedInstType_0::SimdFloatMult            0      0.00%     67.48% # Number of instructions issued per FU type, per thread (Count)
system.cpu1.statIssuedInstType_0::SimdFloatMultAcc            0      0.00%     67.48% # Number of instructions issued per FU type, per thread (Count)
system.cpu1.statIssuedInstType_0::SimdFloatSqrt            0      0.00%     67.48% # Number of instructions issued per FU type, per thread (Count)
system.cpu1.statIssuedInstType_0::SimdReduceAdd            0      0.00%     67.48% # Number of instructions issued per FU type, per thread (Count)
system.cpu1.statIssuedInstType_0::SimdReduceAlu            0      0.00%     67.48% # Number of instructions issued per FU type, per thread (Count)
system.cpu1.statIssuedInstType_0::SimdReduceCmp            0      0.00%     67.48% # Number of instructions issued per FU type, per thread (Count)
system.cpu1.statIssuedInstType_0::SimdFloatReduceAdd            0      0.00%     67.48% # Number of instructions issued per FU type, per thread (Count)
system.cpu1.statIssuedInstType_0::SimdFloatReduceCmp            0      0.00%     67.48% # Number of instructions issued per FU type, per thread (Count)
system.cpu1.statIssuedInstType_0::SimdAes            0      0.00%     67.48% # Number of instructions issued per FU type, per thread (Count)
system.cpu1.statIssuedInstType_0::SimdAesMix            0      0.00%     67.48% # Number of instructions issued per FU type, per thread (Count)
system.cpu1.statIssuedInstType_0::SimdSha1Hash            0      0.00%     67.48% # Number of instructions issued per FU type, per thread (Count)
system.cpu1.statIssuedInstType_0::SimdSha1Hash2            0      0.00%     67.48% # Number of instructions issued per FU type, per thread (Count)
system.cpu1.statIssuedInstType_0::SimdSha256Hash            0      0.00%     67.48% # Number of instructions issued per FU type, per thread (Count)
system.cpu1.statIssuedInstType_0::SimdSha256Hash2            0      0.00%     67.48% # Number of instructions issued per FU type, per thread (Count)
system.cpu1.statIssuedInstType_0::SimdShaSigma2            0      0.00%     67.48% # Number of instructions issued per FU type, per thread (Count)
system.cpu1.statIssuedInstType_0::SimdShaSigma3            0      0.00%     67.48% # Number of instructions issued per FU type, per thread (Count)
system.cpu1.statIssuedInstType_0::SimdPredAlu            0      0.00%     67.48% # Number of instructions issued per FU type, per thread (Count)
system.cpu1.statIssuedInstType_0::MemRead      1571515     16.93%     84.41% # Number of instructions issued per FU type, per thread (Count)
system.cpu1.statIssuedInstType_0::MemWrite       931828     10.04%     94.44% # Number of instructions issued per FU type, per thread (Count)
system.cpu1.statIssuedInstType_0::FloatMemRead         4762      0.05%     94.49% # Number of instructions issued per FU type, per thread (Count)
system.cpu1.statIssuedInstType_0::FloatMemWrite       511210      5.51%    100.00% # Number of instructions issued per FU type, per thread (Count)
system.cpu1.statIssuedInstType_0::IprAccess            0      0.00%    100.00% # Number of instructions issued per FU type, per thread (Count)
system.cpu1.statIssuedInstType_0::InstPrefetch            0      0.00%    100.00% # Number of instructions issued per FU type, per thread (Count)
system.cpu1.statIssuedInstType_0::total       9285107                       # Number of instructions issued per FU type, per thread (Count)
system.cpu1.issueRate                        0.152910                       # Inst issue rate ((Count/Cycle))
system.cpu1.fuBusy                              50476                       # FU busy when requested (Count)
system.cpu1.fuBusyRate                       0.005436                       # FU busy rate (busy events/executed inst) ((Count/Count))
system.cpu1.intInstQueueReads                77160532                       # Number of integer instruction queue reads (Count)
system.cpu1.intInstQueueWrites                8948321                       # Number of integer instruction queue writes (Count)
system.cpu1.intInstQueueWakeupAccesses        8536807                       # Number of integer instruction queue wakeup accesses (Count)
system.cpu1.fpInstQueueReads                  1461846                       # Number of floating instruction queue reads (Count)
system.cpu1.fpInstQueueWrites                  769560                       # Number of floating instruction queue writes (Count)
system.cpu1.fpInstQueueWakeupAccesses          713419                       # Number of floating instruction queue wakeup accesses (Count)
system.cpu1.vecInstQueueReads                       0                       # Number of vector instruction queue reads (Count)
system.cpu1.vecInstQueueWrites                      0                       # Number of vector instruction queue writes (Count)
system.cpu1.vecInstQueueWakeupAccesses              0                       # Number of vector instruction queue wakeup accesses (Count)
system.cpu1.intAluAccesses                    8393570                       # Number of integer alu accesses (Count)
system.cpu1.fpAluAccesses                      732502                       # Number of floating point alu accesses (Count)
system.cpu1.vecAluAccesses                          0                       # Number of vector alu accesses (Count)
system.cpu1.numInsts                          9278027                       # Number of executed instructions (Count)
system.cpu1.numLoadInsts                      1574559                       # Number of load instructions executed (Count)
system.cpu1.numSquashedInsts                     7080                       # Number of squashed instructions skipped in execute (Count)
system.cpu1.numSwp                                  0                       # Number of swp insts executed (Count)
system.cpu1.numNop                                  0                       # Number of nop insts executed (Count)
system.cpu1.numRefs                           3017001                       # Number of memory reference insts executed (Count)
system.cpu1.numBranches                        759497                       # Number of branches executed (Count)
system.cpu1.numStoreInsts                     1442442                       # Number of stores executed (Count)
[...]
system.ruby.network.ext_out_link_utilization     23413613                       (Unspecified)
system.ruby.network.flit_network_latency |944166847500                       |979474502500                       | 87061975000                       (Unspecified)
system.ruby.network.flit_queueing_latency |  9544140500                       |  6947907000                       |   614160000                       (Unspecified)
system.ruby.network.flits_injected       |     8471660     36.18%     36.18% |    13713635     58.57%     94.75% |     1228321      5.25%    100.00% (Unspecified)
system.ruby.network.flits_injected::total     23413616                       (Unspecified)
system.ruby.network.flits_received       |     8471659     36.18%     36.18% |    13713634     58.57%     94.75% |     1228320      5.25%    100.00% (Unspecified)
system.ruby.network.flits_received::total     23413613                       (Unspecified)
system.ruby.network.int_link_utilization     60558626                       (Unspecified)
system.ruby.network.packet_network_latency |397193327000                       |317752194000                       | 87061975000                       (Unspecified)
system.ruby.network.packet_queueing_latency |  4620640500                       |  1878551000                       |   614160000                       (Unspecified)
system.ruby.network.packets_injected     |     3718868     42.91%     42.91% |     3718867     42.91%     85.83% |     1228321     14.17%    100.00% (Unspecified)
system.ruby.network.packets_injected::total      8666056                       (Unspecified)
system.ruby.network.packets_received     |     3718867     42.91%     42.91% |     3718866     42.91%     85.83% |     1228320     14.17%    100.00% (Unspecified)
system.ruby.network.packets_received::total      8666053                       (Unspecified)
system.ruby.network.routers00.Var_1                 3                       (Unspecified)
system.ruby.network.routers00.Var_2               274                       (Unspecified)
system.ruby.network.routers00.Var_3               918                       (Unspecified)
system.ruby.network.routers00.all_counts       231516                       (Unspecified)
system.ruby.network.routers00.buffer_reads      3713306                       (Unspecified)
system.ruby.network.routers00.buffer_writes      3713306                       (Unspecified)
system.ruby.network.routers00.crossbar_activity      3713306                       (Unspecified)
system.ruby.network.routers00.detour_counts          917                       (Unspecified)
system.ruby.network.routers00.regular_var            0                       (Unspecified)
system.ruby.network.routers00.risk_counts          918                       (Unspecified)
system.ruby.network.routers00.sw_input_arbiter_activity      3730561                       (Unspecified)
system.ruby.network.routers00.sw_output_arbiter_activity      3713306                       (Unspecified)
system.ruby.network.routers01.Var_1                 1                       (Unspecified)
system.ruby.network.routers01.Var_2               302                       (Unspecified)
system.ruby.network.routers01.Var_3              1401                       (Unspecified)
system.ruby.network.routers01.all_counts       231503                       (Unspecified)
system.ruby.network.routers01.buffer_reads      5261272                       (Unspecified)
system.ruby.network.routers01.buffer_writes      5261272                       (Unspecified)
system.ruby.network.routers01.crossbar_activity      5261272                       (Unspecified)
system.ruby.network.routers01.detour_counts         1402                       (Unspecified)
system.ruby.network.routers01.regular_var            0                       (Unspecified)
system.ruby.network.routers01.risk_counts         1403                       (Unspecified)
system.ruby.network.routers01.sw_input_arbiter_activity      5299516                       (Unspecified)
system.ruby.network.routers01.sw_output_arbiter_activity      5261272                       (Unspecified)
system.ruby.network.routers02.Var_1                 0                       (Unspecified)
system.ruby.network.routers02.Var_2               286                       (Unspecified)
system.ruby.network.routers02.Var_3              1383                       (Unspecified)
system.ruby.network.routers02.all_counts       231490                       (Unspecified)
system.ruby.network.routers02.buffer_reads      5258456                       (Unspecified)
system.ruby.network.routers02.buffer_writes      5258456                       (Unspecified)
system.ruby.network.routers02.crossbar_activity      5258456                       (Unspecified)
system.ruby.network.routers02.detour_counts         1386                       (Unspecified)
system.ruby.network.routers02.regular_var            0                       (Unspecified)
system.ruby.network.routers02.risk_counts         1386                       (Unspecified)
system.ruby.network.routers02.sw_input_arbiter_activity      5297252                       (Unspecified)
system.ruby.network.routers02.sw_output_arbiter_activity      5258456                       (Unspecified)
system.ruby.network.routers03.Var_1                 1                       (Unspecified)
system.ruby.network.routers03.Var_2               286                       (Unspecified)
system.ruby.network.routers03.Var_3               965                       (Unspecified)
system.ruby.network.routers03.all_counts       231506                       (Unspecified)
system.ruby.network.routers03.buffer_reads      3708019                       (Unspecified)
system.ruby.network.routers03.buffer_writes      3708019                       (Unspecified)
system.ruby.network.routers03.crossbar_activity      3708019                       (Unspecified)
system.ruby.network.routers03.detour_counts          967                       (Unspecified)
system.ruby.network.routers03.regular_var            0                       (Unspecified)
system.ruby.network.routers03.risk_counts          967                       (Unspecified)
system.ruby.network.routers03.sw_input_arbiter_activity      3725032                       (Unspecified)
system.ruby.network.routers03.sw_output_arbiter_activity      3708019                       (Unspecified)
system.ruby.network.routers04.Var_1                 1                       (Unspecified)
system.ruby.network.routers04.Var_2               290                       (Unspecified)
system.ruby.network.routers04.Var_3             43464                       (Unspecified)
system.ruby.network.routers04.all_counts       231505                       (Unspecified)
system.ruby.network.routers04.buffer_reads      5192493                       (Unspecified)
system.ruby.network.routers04.buffer_writes      5192493                       (Unspecified)
system.ruby.network.routers04.crossbar_activity      5192493                       (Unspecified)
system.ruby.network.routers04.detour_counts        43464                       (Unspecified)
system.ruby.network.routers04.regular_var            0                       (Unspecified)
system.ruby.network.routers04.risk_counts        43465                       (Unspecified)
system.ruby.network.routers04.sw_input_arbiter_activity      5226999                       (Unspecified)
system.ruby.network.routers04.sw_output_arbiter_activity      5192493                       (Unspecified)
system.ruby.network.routers05.Var_1                 3                       (Unspecified)
system.ruby.network.routers05.Var_2               307                       (Unspecified)
system.ruby.network.routers05.Var_3             43631                       (Unspecified)
system.ruby.network.routers05.all_counts       231490                       (Unspecified)
system.ruby.network.routers05.buffer_reads      6824251                       (Unspecified)
system.ruby.network.routers05.buffer_writes      6824251                       (Unspecified)
system.ruby.network.routers05.crossbar_activity      6824251                       (Unspecified)
system.ruby.network.routers05.detour_counts        43625                       (Unspecified)
system.ruby.network.routers05.regular_var            0                       (Unspecified)
system.ruby.network.routers05.risk_counts        43633                       (Unspecified)
system.ruby.network.routers05.sw_input_arbiter_activity      6880894                       (Unspecified)
system.ruby.network.routers05.sw_output_arbiter_activity      6824251                       (Unspecified)
system.ruby.network.routers06.Var_1                 4                       (Unspecified)
system.ruby.network.routers06.Var_2               292                       (Unspecified)
system.ruby.network.routers06.Var_3             43492                       (Unspecified)
system.ruby.network.routers06.all_counts       231505                       (Unspecified)
system.ruby.network.routers06.buffer_reads      6828601                       (Unspecified)
system.ruby.network.routers06.buffer_writes      6828601                       (Unspecified)
system.ruby.network.routers06.crossbar_activity      6828601                       (Unspecified)
system.ruby.network.routers06.detour_counts        43493                       (Unspecified)
system.ruby.network.routers06.regular_var            0                       (Unspecified)
system.ruby.network.routers06.risk_counts        43494                       (Unspecified)
system.ruby.network.routers06.sw_input_arbiter_activity      6885083                       (Unspecified)
system.ruby.network.routers06.sw_output_arbiter_activity      6828601                       (Unspecified)
system.ruby.network.routers07.Var_1                 4                       (Unspecified)
system.ruby.network.routers07.Var_2               288                       (Unspecified)
system.ruby.network.routers07.Var_3             43354                       (Unspecified)
system.ruby.network.routers07.all_counts       231505                       (Unspecified)
system.ruby.network.routers07.buffer_reads      5194099                       (Unspecified)
system.ruby.network.routers07.buffer_writes      5194099                       (Unspecified)
system.ruby.network.routers07.crossbar_activity      5194099                       (Unspecified)
system.ruby.network.routers07.detour_counts        43356                       (Unspecified)
system.ruby.network.routers07.regular_var            0                       (Unspecified)
system.ruby.network.routers07.risk_counts        43358                       (Unspecified)
system.ruby.network.routers07.sw_input_arbiter_activity      5229248                       (Unspecified)
system.ruby.network.routers07.sw_output_arbiter_activity      5194099                       (Unspecified)
system.ruby.network.routers08.Var_1                 1                       (Unspecified)
system.ruby.network.routers08.Var_2               288                       (Unspecified)
system.ruby.network.routers08.Var_3             43374                       (Unspecified)
system.ruby.network.routers08.all_counts       231482                       (Unspecified)
system.ruby.network.routers08.buffer_reads      5195885                       (Unspecified)
system.ruby.network.routers08.buffer_writes      5195885                       (Unspecified)
system.ruby.network.routers08.crossbar_activity      5195885                       (Unspecified)
system.ruby.network.routers08.detour_counts        43370                       (Unspecified)
system.ruby.network.routers08.regular_var            0                       (Unspecified)
system.ruby.network.routers08.risk_counts        43376                       (Unspecified)
system.ruby.network.routers08.sw_input_arbiter_activity      5230520                       (Unspecified)
system.ruby.network.routers08.sw_output_arbiter_activity      5195885                       (Unspecified)
system.ruby.network.routers09.Var_1                 1                       (Unspecified)
system.ruby.network.routers09.Var_2               289                       (Unspecified)
system.ruby.network.routers09.Var_3             43511                       (Unspecified)
system.ruby.network.routers09.all_counts       231497                       (Unspecified)
system.ruby.network.routers09.buffer_reads      6830914                       (Unspecified)
system.ruby.network.routers09.buffer_writes      6830914                       (Unspecified)
system.ruby.network.routers09.crossbar_activity      6830914                       (Unspecified)
system.ruby.network.routers09.detour_counts        43507                       (Unspecified)
system.ruby.network.routers09.regular_var            0                       (Unspecified)
system.ruby.network.routers09.risk_counts        43515                       (Unspecified)
system.ruby.network.routers09.sw_input_arbiter_activity      6888334                       (Unspecified)
system.ruby.network.routers09.sw_output_arbiter_activity      6830914                       (Unspecified)
system.ruby.network.routers10.Var_1                 0                       (Unspecified)
system.ruby.network.routers10.Var_2               291                       (Unspecified)
system.ruby.network.routers10.Var_3             43504                       (Unspecified)
system.ruby.network.routers10.all_counts       231497                       (Unspecified)
system.ruby.network.routers10.buffer_reads      6833602                       (Unspecified)
system.ruby.network.routers10.buffer_writes      6833602                       (Unspecified)
system.ruby.network.routers10.crossbar_activity      6833602                       (Unspecified)
system.ruby.network.routers10.detour_counts        43504                       (Unspecified)
system.ruby.network.routers10.regular_var            0                       (Unspecified)
system.ruby.network.routers10.risk_counts        43507                       (Unspecified)
system.ruby.network.routers10.sw_input_arbiter_activity      6891667                       (Unspecified)
system.ruby.network.routers10.sw_output_arbiter_activity      6833602                       (Unspecified)
system.ruby.network.routers11.Var_1                 1                       (Unspecified)
system.ruby.network.routers11.Var_2               268                       (Unspecified)
system.ruby.network.routers11.Var_3             43309                       (Unspecified)
system.ruby.network.routers11.all_counts       231494                       (Unspecified)
system.ruby.network.routers11.buffer_reads      5197349                       (Unspecified)
system.ruby.network.routers11.buffer_writes      5197349                       (Unspecified)
system.ruby.network.routers11.crossbar_activity      5197349                       (Unspecified)
system.ruby.network.routers11.detour_counts        43306                       (Unspecified)
system.ruby.network.routers11.regular_var            0                       (Unspecified)
system.ruby.network.routers11.risk_counts        43311                       (Unspecified)
system.ruby.network.routers11.sw_input_arbiter_activity      5232449                       (Unspecified)
system.ruby.network.routers11.sw_output_arbiter_activity      5197349                       (Unspecified)
system.ruby.network.routers12.Var_1                 0                       (Unspecified)
system.ruby.network.routers12.Var_2               286                       (Unspecified)
system.ruby.network.routers12.Var_3               962                       (Unspecified)
system.ruby.network.routers12.all_counts       231528                       (Unspecified)
system.ruby.network.routers12.buffer_reads      3711102                       (Unspecified)
system.ruby.network.routers12.buffer_writes      3711102                       (Unspecified)
system.ruby.network.routers12.crossbar_activity      3711102                       (Unspecified)
system.ruby.network.routers12.detour_counts          967                       (Unspecified)
system.ruby.network.routers12.regular_var            0                       (Unspecified)
system.ruby.network.routers12.risk_counts          967                       (Unspecified)
system.ruby.network.routers12.sw_input_arbiter_activity      3728865                       (Unspecified)
system.ruby.network.routers12.sw_output_arbiter_activity      3711102                       (Unspecified)
system.ruby.network.routers13.Var_1                 1                       (Unspecified)
system.ruby.network.routers13.Var_2               299                       (Unspecified)
system.ruby.network.routers13.Var_3              3754                       (Unspecified)
system.ruby.network.routers13.all_counts       231478                       (Unspecified)
system.ruby.network.routers13.buffer_reads      5259584                       (Unspecified)
system.ruby.network.routers13.buffer_writes      5259584                       (Unspecified)
system.ruby.network.routers13.crossbar_activity      5259584                       (Unspecified)
system.ruby.network.routers13.detour_counts         3755                       (Unspecified)
system.ruby.network.routers13.regular_var            0                       (Unspecified)
system.ruby.network.routers13.risk_counts         3755                       (Unspecified)
system.ruby.network.routers13.sw_input_arbiter_activity      5298754                       (Unspecified)
system.ruby.network.routers13.sw_output_arbiter_activity      5259584                       (Unspecified)
system.ruby.network.routers14.Var_1                 1                       (Unspecified)
system.ruby.network.routers14.Var_2               287                       (Unspecified)
system.ruby.network.routers14.Var_3              1379                       (Unspecified)
system.ruby.network.routers14.all_counts       231522                       (Unspecified)
system.ruby.network.routers14.buffer_reads      5256818                       (Unspecified)
system.ruby.network.routers14.buffer_writes      5256818                       (Unspecified)
system.ruby.network.routers14.crossbar_activity      5256818                       (Unspecified)
system.ruby.network.routers14.detour_counts         1379                       (Unspecified)
system.ruby.network.routers14.regular_var            0                       (Unspecified)
system.ruby.network.routers14.risk_counts         1379                       (Unspecified)
system.ruby.network.routers14.sw_input_arbiter_activity      5296168                       (Unspecified)
system.ruby.network.routers14.sw_output_arbiter_activity      5256818                       (Unspecified)
system.ruby.network.routers15.Var_1                 0                       (Unspecified)
system.ruby.network.routers15.Var_2               285                       (Unspecified)
system.ruby.network.routers15.Var_3               952                       (Unspecified)
system.ruby.network.routers15.all_counts       231503                       (Unspecified)
system.ruby.network.routers15.buffer_reads      3706489                       (Unspecified)
system.ruby.network.routers15.buffer_writes      3706489                       (Unspecified)
system.ruby.network.routers15.crossbar_activity      3706488                       (Unspecified)
system.ruby.network.routers15.detour_counts          958                       (Unspecified)
system.ruby.network.routers15.regular_var            0                       (Unspecified)
system.ruby.network.routers15.risk_counts          959                       (Unspecified)
system.ruby.network.routers15.sw_input_arbiter_activity      3723602                       (Unspecified)
system.ruby.network.routers15.sw_output_arbiter_activity      3706488                       (Unspecified)

---------- End Simulation Statistics   ----------
