
---------- Begin Simulation Statistics ----------
simSeconds                                   0.031558                       # Number of seconds simulated (Second)
simTicks                                  31557683000                       # Number of ticks simulated (Tick)
finalTick                                 31557683000                       # Number of ticks from beginning of simulation (restored from checkpoints and never reset) (Tick)
simFreq                                  1000000000000                       # The number of ticks per simulated second ((Tick/Second))
hostSeconds                                   1440.29                       # Real time elapsed on the host (Second)
hostTickRate                                 21910694                       # The number of ticks simulated per host second (ticks/s) ((Tick/Second))
hostMemory                                   40421152                       # Number of bytes of host memory used (Byte)
simInsts                                     78224848                       # Number of instructions simulated (Count)
simOps                                      143497248                       # Number of ops (including micro ops) simulated (Count)
hostInstRate                                    54312                       # Simulator instruction rate (inst/s) ((Count/Second))
hostOpRate                                      99631                       # Simulator op (including micro ops) rate (op/s) ((Count/Second))
system.clk_domain.clock                          1000                       # Clock period in ticks (Tick)
system.cpu0.numCycles                        62951949                       # Number of cpu cycles simulated (Cycle)
system.cpu0.numWorkItemsStarted                     0                       # Number of work items this cpu started (Count)
system.cpu0.numWorkItemsCompleted                   0                       # Number of work items this cpu completed (Count)
system.cpu0.instsAdded                        9343404                       # Number of instructions added to the IQ (excludes non-spec) (Count)
system.cpu0.nonSpecInstsAdded                     396                       # Number of non-speculative instructions added to the IQ (Count)
system.cpu0.instsIssued                       9285694                       # Number of instructions issued (Count)
system.cpu0.squashedInstsIssued                   784                       # Number of squashed instructions issued (Count)
system.cpu0.squashedInstsExamined              375222                       # Number of squashed instructions iterated over during squash; mainly for profiling (Count)
system.cpu0.squashedOperandsExamined           417188                       # Number of squashed operands that are examined and possibly removed from graph (Count)
system.cpu0.squashedNonSpecRemoved                228                       # Number of squashed non-spec instructions that were removed (Count)
system.cpu0.numIssuedDist::samples           62187321                       # Number of insts issued each cycle (Count)
system.cpu0.numIssuedDist::mean              0.149318                       # Number of insts issued each cycle (Count)
system.cpu0.numIssuedDist::stdev             0.773936                       # Number of insts issued each cycle (Count)
system.cpu0.numIssuedDist::underflows               0      0.00%      0.00% # Number of insts issued each cycle (Count)
system.cpu0.numIssuedDist::0                 59209342     95.21%     95.21% # Number of insts issued each cycle (Count)
system.cpu0.numIssuedDist::1                   823775      1.32%     96.54% # Number of insts issued each cycle (Count)
system.cpu0.numIssuedDist::2                   356245      0.57%     97.11% # Number of insts issued each cycle (Count)
system.cpu0.numIssuedDist::3                   526065      0.85%     97.95% # Number of insts issued each cycle (Count)
system.cpu0.numIssuedDist::4                   693797      1.12%     99.07% # Number of insts issued each cycle (Count)
system.cpu0.numIssuedDist::5                   279228      0.45%     99.52% # Number of insts issued each cycle (Count)
system.cpu0.numIssuedDist::6                   154271      0.25%     99.77% # Number of insts issued each cycle (Count)
system.cpu0.numIssuedDist::7                    82504      0.13%     99.90% # Number of insts issued each cycle (Count)
system.cpu0.numIssuedDist::8                    62094      0.10%    100.00% # Number of insts issued each cycle (Count)
system.cpu0.numIssuedDist::overflows                0      0.00%    100.00% # Number of insts issued each cycle (Count)
system.cpu0.numIssuedDist::min_value                0                       # Number of insts issued each cycle (Count)
system.cpu0.numIssuedDist::max_value                8                       # Number of insts issued each cycle (Count)
system.cpu0.numIssuedDist::total             62187321                       # Number of insts issued each cycle (Count)
system.cpu0.statFuBusy::No_OpClass                  0      0.00%      0.00% # attempts to use FU when none available (Count)
system.cpu0.statFuBusy::IntAlu                   4535      8.98%      8.98% # attempts to use FU when none available (Count)
system.cpu0.statFuBusy::IntMult                     0      0.00%      8.98% # attempts to use FU when none available (Count)
system.cpu0.statFuBusy::IntDiv                      0      0.00%      8.98% # attempts to use FU when none available (Count)
system.cpu0.statFuBusy::FloatAdd                    0      0.00%      8.98% # attempts to use FU when none available (Count)
system.cpu0.statFuBusy::FloatCmp                    0      0.00%      8.98% # attempts to use FU when none available (Count)
system.cpu0.statFuBusy::FloatCvt                    0      0.00%      8.98% # attempts to use FU when none available (Count)
system.cpu0.statFuBusy::FloatMult                   0      0.00%      8.98% # attempts to use FU when none available (Count)
system.cpu0.statFuBusy::FloatMultAcc                0      0.00%      8.98% # attempts to use FU when none available (Count)
system.cpu0.statFuBusy::FloatDiv                    0      0.00%      8.98% # attempts to use FU when none available (Count)
system.cpu0.statFuBusy::FloatMisc                   0      0.00%      8.98% # attempts to use FU when none available (Count)
system.cpu0.statFuBusy::FloatSqrt                   0      0.00%      8.98% # attempts to use FU when none available (Count)
system.cpu0.statFuBusy::SimdAdd                     2      0.00%      8.99% # attempts to use FU when none available (Count)
system.cpu0.statFuBusy::SimdAddAcc                  0      0.00%      8.99% # attempts to use FU when none available (Count)
system.cpu0.statFuBusy::SimdAlu                    30      0.06%      9.05% # attempts to use FU when none available (Count)
system.cpu0.statFuBusy::SimdCmp                     0      0.00%      9.05% # attempts to use FU when none available (Count)
system.cpu0.statFuBusy::SimdCvt                   103      0.20%      9.25% # attempts to use FU when none available (Count)
system.cpu0.statFuBusy::SimdMisc                    2      0.00%      9.26% # attempts to use FU when none available (Count)
system.cpu0.statFuBusy::SimdMult                    0      0.00%      9.26% # attempts to use FU when none available (Count)
system.cpu0.statFuBusy::SimdMultAcc                 0      0.00%      9.26% # attempts to use FU when none available (Count)
system.cpu0.statFuBusy::SimdShift                  70      0.14%      9.39% # attempts to use FU when none available (Count)
system.cpu0.statFuBusy::SimdShiftAcc                0      0.00%      9.39% # attempts to use FU when none available (Count)
system.cpu0.statFuBusy::SimdDiv                     0      0.00%      9.39% # attempts to use FU when none available (Count)
system.cpu0.statFuBusy::SimdSqrt                    0      0.00%      9.39% # attempts to use FU when none available (Count)
system.cpu0.statFuBusy::SimdFloatAdd                0      0.00%      9.39% # attempts to use FU when none available (Count)
system.cpu0.statFuBusy::SimdFloatAlu                0      0.00%      9.39% # attempts to use FU when none available (Count)
system.cpu0.statFuBusy::SimdFloatCmp                0      0.00%      9.39% # attempts to use FU when none available (Count)
system.cpu0.statFuBusy::SimdFloatCvt                0      0.00%      9.39% # attempts to use FU when none available (Count)
system.cpu0.statFuBusy::SimdFloatDiv                0      0.00%      9.39% # attempts to use FU when none available (Count)
system.cpu0.statFuBusy::SimdFloatMisc               0      0.00%      9.39% # attempts to use FU when none available (Count)
system.cpu0.statFuBusy::SimdFloatMult               0      0.00%      9.39% # attempts to use FU when none available (Count)
system.cpu0.statFuBusy::SimdFloatMultAcc            0      0.00%      9.39% # attempts to use FU when none available (Count)
system.cpu0.statFuBusy::SimdFloatSqrt               0      0.00%      9.39% # attempts to use FU when none available (Count)
system.cpu0.statFuBusy::SimdReduceAdd               0      0.00%      9.39% # attempts to use FU when none available (Count)
system.cpu0.statFuBusy::SimdReduceAlu               0      0.00%      9.39% # attempts to use FU when none available (Count)
system.cpu0.statFuBusy::SimdReduceCmp               0      0.00%      9.39% # attempts to use FU when none available (Count)
system.cpu0.statFuBusy::SimdFloatReduceAdd            0      0.00%      9.39% # attempts to use FU when none available (Count)
system.cpu0.statFuBusy::SimdFloatReduceCmp            0      0.00%      9.39% # attempts to use FU when none available (Count)
system.cpu0.statFuBusy::SimdAes                     0      0.00%      9.39% # attempts to use FU when none available (Count)
system.cpu0.statFuBusy::SimdAesMix                  0      0.00%      9.39% # attempts to use FU when none available (Count)
system.cpu0.statFuBusy::SimdSha1Hash                0      0.00%      9.39% # attempts to use FU when none available (Count)
system.cpu0.statFuBusy::SimdSha1Hash2               0      0.00%      9.39% # attempts to use FU when none available (Count)
system.cpu0.statFuBusy::SimdSha256Hash              0      0.00%      9.39% # attempts to use FU when none available (Count)
system.cpu0.statFuBusy::SimdSha256Hash2             0      0.00%      9.39% # attempts to use FU when none available (Count)
system.cpu0.statFuBusy::SimdShaSigma2               0      0.00%      9.39% # attempts to use FU when none available (Count)
system.cpu0.statFuBusy::SimdShaSigma3               0      0.00%      9.39% # attempts to use FU when none available (Count)
system.cpu0.statFuBusy::SimdPredAlu                 0      0.00%      9.39% # attempts to use FU when none available (Count)
system.cpu0.statFuBusy::MemRead                  4067      8.06%     17.45% # attempts to use FU when none available (Count)
system.cpu0.statFuBusy::MemWrite                38623     76.52%     93.97% # attempts to use FU when none available (Count)
system.cpu0.statFuBusy::FloatMemRead               69      0.14%     94.11% # attempts to use FU when none available (Count)
system.cpu0.statFuBusy::FloatMemWrite            2974      5.89%    100.00% # attempts to use FU when none available (Count)
system.cpu0.statFuBusy::IprAccess                   0      0.00%    100.00% # attempts to use FU when none available (Count)
system.cpu0.statFuBusy::InstPrefetch                0      0.00%    100.00% # attempts to use FU when none available (Count)
system.cpu0.statIssuedInstType_0::No_OpClass       209495      2.26%      2.26% # Number of instructions issued per FU type, per thread (Count)
system.cpu0.statIssuedInstType_0::IntAlu      5841654     62.91%     65.17% # Number of instructions issued per FU type, per thread (Count)
system.cpu0.statIssuedInstType_0::IntMult           26      0.00%     65.17% # Number of instructions issued per FU type, per thread (Count)
system.cpu0.statIssuedInstType_0::IntDiv         2517      0.03%     65.19% # Number of instructions issued per FU type, per thread (Count)
system.cpu0.statIssuedInstType_0::FloatAdd         1111      0.01%     65.21% # Number of instructions issued per FU type, per thread (Count)
system.cpu0.statIssuedInstType_0::FloatCmp            0      0.00%     65.21% # Number of instructions issued per FU type, per thread (Count)
system.cpu0.statIssuedInstType_0::FloatCvt           32      0.00%     65.21% # Number of instructions issued per FU type, per thread (Count)
system.cpu0.statIssuedInstType_0::FloatMult            0      0.00%     65.21% # Number of instructions issued per FU type, per thread (Count)
system.cpu0.statIssuedInstType_0::FloatMultAcc            0      0.00%     65.21% # Number of instructions issued per FU type, per thread (Count)
system.cpu0.statIssuedInstType_0::FloatDiv            0      0.00%     65.21% # Number of instructions issued per FU type, per thread (Count)
system.cpu0.statIssuedInstType_0::FloatMisc            0      0.00%     65.21% # Number of instructions issued per FU type, per thread (Count)
system.cpu0.statIssuedInstType_0::FloatSqrt            0      0.00%     65.21% # Number of instructions issued per FU type, per thread (Count)
system.cpu0.statIssuedInstType_0::SimdAdd         1226      0.01%     65.22% # Number of instructions issued per FU type, per thread (Count)
system.cpu0.statIssuedInstType_0::SimdAddAcc            0      0.00%     65.22% # Number of instructions issued per FU type, per thread (Count)
system.cpu0.statIssuedInstType_0::SimdAlu       203529      2.19%     67.41% # Number of instructions issued per FU type, per thread (Count)
system.cpu0.statIssuedInstType_0::SimdCmp            6      0.00%     67.41% # Number of instructions issued per FU type, per thread (Count)
system.cpu0.statIssuedInstType_0::SimdCvt         3126      0.03%     67.44% # Number of instructions issued per FU type, per thread (Count)
system.cpu0.statIssuedInstType_0::SimdMisc         2310      0.02%     67.47% # Number of instructions issued per FU type, per thread (Count)
system.cpu0.statIssuedInstType_0::SimdMult            0      0.00%     67.47% # Number of instructions issued per FU type, per thread (Count)
system.cpu0.statIssuedInstType_0::SimdMultAcc            0      0.00%     67.47% # Number of instructions issued per FU type, per thread (Count)
system.cpu0.statIssuedInstType_0::SimdShift         1200      0.01%     67.48% # Number of instructions issued per FU type, per thread (Count)
system.cpu0.statIssuedInstType_0::SimdShiftAcc            0      0.00%     67.48% # Number of instructions issued per FU type, per thread (Count)
system.cpu0.statIssuedInstType_0::SimdDiv            0      0.00%     67.48% # Number of instructions issued per FU type, per thread (Count)
system.cpu0.statIssuedInstType_0::SimdSqrt            0      0.00%     67.48% # Number of instructions issued per FU type, per thread (Count)
system.cpu0.statIssuedInstType_0::SimdFloatAdd            0      0.00%     67.48% # Number of instructions issued per FU type, per thread (Count)
system.cpu0.statIssuedInstType_0::SimdFloatAlu            0      0.00%     67.48% # Number of instructions issued per FU type, per thread (Count)
system.cpu0.statIssuedInstType_0::SimdFloatCmp            0      0.00%     67.48% # Number of instructions issued per FU type, per thread (Count)
system.cpu0.statIssuedInstType_0::SimdFloatCvt            0      0.00%     67.48% # Number of instructions issued per FU type, per thread (Count)
system.cpu0.statIssuedInstType_0::SimdFloatDiv            0      0.00%     67.48% # Number of instructions issued per FU type, per thread (Count)
system.cpu0.statIssuedInstType_0::SimdFloatMisc            0      0.00%     67.48% # Number of instructions issued per FU type, per thread (Count)
system.cpu0.statIssuedInstType_0::SimdFloatMult            0      0.00%     67.48% # Number of instructions issued per FU type, per thread (Count)
system.cpu0.statIssuedInstType_0::SimdFloatMultAcc            0      0.00%     67.48% # Number of instructions issued per FU type, per thread (Count)
system.cpu0.statIssuedInstType_0::SimdFloatSqrt            0      0.00%     67.48% # Number of instructions issued per FU type, per thread (Count)
system.cpu0.statIssuedInstType_0::SimdReduceAdd            0      0.00%     67.48% # Number of instructions issued per FU type, per thread (Count)
system.cpu0.statIssuedInstType_0::SimdReduceAlu            0      0.00%     67.48% # Number of instructions issued per FU type, per thread (Count)
system.cpu0.statIssuedInstType_0::SimdReduceCmp            0      0.00%     67.48% # Number of instructions issued per FU type, per thread (Count)
system.cpu0.statIssuedInstType_0::SimdFloatReduceAdd            0      0.00%     67.48% # Number of instructions issued per FU type, per thread (Count)
system.cpu0.statIssuedInstType_0::SimdFloatReduceCmp            0      0.00%     67.48% # Number of instructions issued per FU type, per thread (Count)
system.cpu0.statIssuedInstType_0::SimdAes            0      0.00%     67.48% # Number of instructions issued per FU type, per thread (Count)
system.cpu0.statIssuedInstType_0::SimdAesMix            0      0.00%     67.48% # Number of instructions issued per FU type, per thread (Count)
system.cpu0.statIssuedInstType_0::SimdSha1Hash            0      0.00%     67.48% # Number of instructions issued per FU type, per thread (Count)
system.cpu0.statIssuedInstType_0::SimdSha1Hash2            0      0.00%     67.48% # Number of instructions issued per FU type, per thread (Count)
system.cpu0.statIssuedInstType_0::SimdSha256Hash            0      0.00%     67.48% # Number of instructions issued per FU type, per thread (Count)
system.cpu0.statIssuedInstType_0::SimdSha256Hash2            0      0.00%     67.48% # Number of instructions issued per FU type, per thread (Count)
system.cpu0.statIssuedInstType_0::SimdShaSigma2            0      0.00%     67.48% # Number of instructions issued per FU type, per thread (Count)
system.cpu0.statIssuedInstType_0::SimdShaSigma3            0      0.00%     67.48% # Number of instructions issued per FU type, per thread (Count)
system.cpu0.statIssuedInstType_0::SimdPredAlu            0      0.00%     67.48% # Number of instructions issued per FU type, per thread (Count)
system.cpu0.statIssuedInstType_0::MemRead      1571600     16.92%     84.41% # Number of instructions issued per FU type, per thread (Count)
system.cpu0.statIssuedInstType_0::MemWrite       931875     10.04%     94.44% # Number of instructions issued per FU type, per thread (Count)
system.cpu0.statIssuedInstType_0::FloatMemRead         4779      0.05%     94.49% # Number of instructions issued per FU type, per thread (Count)
system.cpu0.statIssuedInstType_0::FloatMemWrite       511208      5.51%    100.00% # Number of instructions issued per FU type, per thread (Count)
system.cpu0.statIssuedInstType_0::IprAccess            0      0.00%    100.00% # Number of instructions issued per FU type, per thread (Count)
system.cpu0.statIssuedInstType_0::InstPrefetch            0      0.00%    100.00% # Number of instructions issued per FU type, per thread (Count)
system.cpu0.statIssuedInstType_0::total       9285694                       # Number of instructions issued per FU type, per thread (Count)
system.cpu0.issueRate                        0.147504                       # Inst issue rate ((Count/Cycle))
system.cpu0.fuBusy                              50475                       # FU busy when requested (Count)
system.cpu0.fuBusyRate                       0.005436                       # FU busy rate (busy events/executed inst) ((Count/Count))
system.cpu0.intInstQueueReads                79348167                       # Number of integer instruction queue reads (Count)
system.cpu0.intInstQueueWrites                8949601                       # Number of integer instruction queue writes (Count)
system.cpu0.intInstQueueWakeupAccesses        8537463                       # Number of integer instruction queue wakeup accesses (Count)
system.cpu0.fpInstQueueReads                  1461801                       # Number of floating instruction queue reads (Count)
system.cpu0.fpInstQueueWrites                  769552                       # Number of floating instruction queue writes (Count)
system.cpu0.fpInstQueueWakeupAccesses          713381                       # Number of floating instruction queue wakeup accesses (Count)
system.cpu0.vecInstQueueReads                       0                       # Number of vector instruction queue reads (Count)
system.cpu0.vecInstQueueWrites                      0                       # Number of vector instruction queue writes (Count)
system.cpu0.vecInstQueueWakeupAccesses              0                       # Number of vector instruction queue wakeup accesses (Count)
system.cpu0.intAluAccesses                    8394200                       # Number of integer alu accesses (Count)
system.cpu0.fpAluAccesses                      732474                       # Number of floating point alu accesses (Count)
system.cpu0.vecAluAccesses                          0                       # Number of vector alu accesses (Count)
system.cpu0.numInsts                          9278654                       # Number of executed instructions (Count)
system.cpu0.numLoadInsts                      1574665                       # Number of load instructions executed (Count)
system.cpu0.numSquashedInsts                     7040                       # Number of squashed instructions skipped in execute (Count)
system.cpu0.numSwp                                  0                       # Number of swp insts executed (Count)
system.cpu0.numNop                                  0                       # Number of nop insts executed (Count)
system.cpu0.numRefs                           3017157                       # Number of memory reference insts executed (Count)
system.cpu0.numBranches                        759561                       # Number of branches executed (Count)
system.cpu0.numStoreInsts                     1442492                       # Number of stores executed (Count)
system.cpu0.numRate                          0.147393                       # Inst execution rate ((Count/Cycle))
system.cpu0.timesIdled                           1458                       # Number of times that the entire CPU went into an idle state and unscheduled itself (Count)
system.cpu0.idleCycles                         764628                       # Total number of cycles that the CPU has spent unscheduled due to idling (Cycle)
system.cpu0.committedInsts                    4889053                       # Number of Instructions Simulated (Count)
system.cpu0.committedOps                      8968578                       # Number of Ops (including micro ops) Simulated (Count)
system.cpu0.cpi                             12.876103                       # CPI: Cycles Per Instruction ((Cycle/Count))
system.cpu0.totalCpi                        12.876103                       # CPI: Total CPI of All Threads ((Cycle/Count))
system.cpu0.ipc                              0.077663                       # IPC: Instructions Per Cycle ((Count/Cycle))
system.cpu0.totalIpc                         0.077663                       # IPC: Total IPC of All Threads ((Count/Cycle))
system.cpu0.intRegfileReads                  11374694                       # Number of integer regfile reads (Count)
system.cpu0.intRegfileWrites                  6305839                       # Number of integer regfile writes (Count)
system.cpu0.fpRegfileReads                     937482                       # Number of floating regfile reads (Count)
system.cpu0.fpRegfileWrites                    215390                       # Number of floating regfile writes (Count)
system.cpu0.ccRegfileReads                    2404054                       # number of cc regfile reads (Count)
system.cpu0.ccRegfileWrites                   2819242                       # number of cc regfile writes (Count)
system.cpu0.miscRegfileReads                  4442735                       # number of misc regfile reads (Count)
system.cpu0.miscRegfileWrites                      18                       # number of misc regfile writes (Count)
system.cpu0.MemDepUnit__0.insertedLoads       1579334                       # Number of loads inserted to the mem dependence unit. (Count)
system.cpu0.MemDepUnit__0.insertedStores      1446106                       # Number of stores inserted to the mem dependence unit. (Count)
system.cpu0.MemDepUnit__0.conflictingLoads       343096                       # Number of conflicting loads. (Count)
system.cpu0.MemDepUnit__0.conflictingStores          731                       # Number of conflicting stores. (Count)
system.cpu0.MemDepUnit__1.insertedLoads             0                       # Number of loads inserted to the mem dependence unit. (Count)
system.cpu0.MemDepUnit__1.insertedStores            0                       # Number of stores inserted to the mem dependence unit. (Count)
system.cpu0.MemDepUnit__1.conflictingLoads            0                       # Number of conflicting loads. (Count)
system.cpu0.MemDepUnit__1.conflictingStores            0                       # Number of conflicting stores. (Count)
system.cpu0.MemDepUnit__2.insertedLoads             0                       # Number of loads inserted to the mem dependence unit. (Count)
system.cpu0.MemDepUnit__2.insertedStores            0                       # Number of stores inserted to the mem dependence unit. (Count)
system.cpu0.MemDepUnit__2.conflictingLoads            0                       # Number of conflicting loads. (Count)
system.cpu0.MemDepUnit__2.conflictingStores            0                       # Number of conflicting stores. (Count)
system.cpu0.MemDepUnit__3.insertedLoads             0                       # Number of loads inserted to the mem dependence unit. (Count)
system.cpu0.MemDepUnit__3.insertedStores            0                       # Number of stores inserted to the mem dependence unit. (Count)
system.cpu0.MemDepUnit__3.conflictingLoads            0                       # Number of conflicting loads. (Count)
system.cpu0.MemDepUnit__3.conflictingStores            0                       # Number of conflicting stores. (Count)
system.cpu0.branchPred.lookups                 783690                       # Number of BP lookups (Count)
system.cpu0.branchPred.condPredicted           365671                       # Number of conditional branches predicted (Count)
system.cpu0.branchPred.condIncorrect             4292                       # Number of conditional branches incorrect (Count)
system.cpu0.branchPred.BTBLookups              443591                       # Number of BTB lookups (Count)
system.cpu0.branchPred.BTBUpdates                3018                       # Number of BTB updates (Count)
system.cpu0.branchPred.BTBHits                 441135                       # Number of BTB hits (Count)
system.cpu0.branchPred.BTBHitRatio           0.994463                       # BTB Hit Ratio (Ratio)
system.cpu0.branchPred.RASUsed                 104849                       # Number of times the RAS was used to get a target. (Count)
system.cpu0.branchPred.RASIncorrect                 8                       # Number of incorrect RAS predictions. (Count)
system.cpu0.branchPred.indirectLookups         104440                       # Number of indirect predictor lookups. (Count)
system.cpu0.branchPred.indirectHits            102489                       # Number of indirect target hits. (Count)
system.cpu0.branchPred.indirectMisses            1951                       # Number of indirect misses. (Count)
system.cpu0.branchPred.indirectMispredicted          555                       # Number of mispredicted indirect branches. (Count)
system.cpu0.commit.commitSquashedInsts         360156                       # The number of squashed insts skipped by commit (Count)
system.cpu0.commit.commitNonSpecStalls            168                       # The number of times commit has been forced to stall to communicate backwards (Count)
system.cpu0.commit.branchMispredicts             5190                       # The number of times a branch was mispredicted (Count)
system.cpu0.commit.numCommittedDist::samples     62137020                       # Number of insts commited each cycle (Count)
system.cpu0.commit.numCommittedDist::mean     0.144336                       # Number of insts commited each cycle (Count)
system.cpu0.commit.numCommittedDist::stdev     0.817998                       # Number of insts commited each cycle (Count)
system.cpu0.commit.numCommittedDist::underflows            0      0.00%      0.00% # Number of insts commited each cycle (Count)
system.cpu0.commit.numCommittedDist::0       59247167     95.35%     95.35% # Number of insts commited each cycle (Count)
system.cpu0.commit.numCommittedDist::1        1009879      1.63%     96.97% # Number of insts commited each cycle (Count)
system.cpu0.commit.numCommittedDist::2         321729      0.52%     97.49% # Number of insts commited each cycle (Count)
system.cpu0.commit.numCommittedDist::3         754278      1.21%     98.71% # Number of insts commited each cycle (Count)
system.cpu0.commit.numCommittedDist::4         128792      0.21%     98.91% # Number of insts commited each cycle (Count)
system.cpu0.commit.numCommittedDist::5         213023      0.34%     99.26% # Number of insts commited each cycle (Count)
system.cpu0.commit.numCommittedDist::6          99393      0.16%     99.42% # Number of insts commited each cycle (Count)
system.cpu0.commit.numCommittedDist::7          26306      0.04%     99.46% # Number of insts commited each cycle (Count)
system.cpu0.commit.numCommittedDist::8         336453      0.54%    100.00% # Number of insts commited each cycle (Count)
system.cpu0.commit.numCommittedDist::overflows            0      0.00%    100.00% # Number of insts commited each cycle (Count)
system.cpu0.commit.numCommittedDist::min_value            0                       # Number of insts commited each cycle (Count)
system.cpu0.commit.numCommittedDist::max_value            8                       # Number of insts commited each cycle (Count)
system.cpu0.commit.numCommittedDist::total     62137020                       # Number of insts commited each cycle (Count)
system.cpu0.commit.instsCommitted             4889053                       # Number of instructions committed (Count)
system.cpu0.commit.opsCommitted               8968578                       # Number of ops (including micro ops) committed (Count)
system.cpu0.commit.memRefs                    2923151                       # Number of memory references committed (Count)
system.cpu0.commit.loads                      1523778                       # Number of loads committed (Count)
system.cpu0.commit.amos                             0                       # Number of atomic instructions committed (Count)
system.cpu0.commit.membars                        100                       # Number of memory barriers committed (Count)
system.cpu0.commit.branches                    736421                       # Number of branches committed (Count)
system.cpu0.commit.vectorInstructions               0                       # Number of committed Vector instructions. (Count)
system.cpu0.commit.floating                    699566                       # Number of committed floating point instructions. (Count)
system.cpu0.commit.integer                    8464947                       # Number of committed integer instructions. (Count)
system.cpu0.commit.functionCalls               100750                       # Number of function calls committed. (Count)
system.cpu0.commit.committedInstType_0::No_OpClass       200789      2.24%      2.24% # Class of committed instruction (Count)
system.cpu0.commit.committedInstType_0::IntAlu      5638438     62.87%     65.11% # Class of committed instruction (Count)
system.cpu0.commit.committedInstType_0::IntMult           19      0.00%     65.11% # Class of committed instruction (Count)
system.cpu0.commit.committedInstType_0::IntDiv         2327      0.03%     65.13% # Class of committed instruction (Count)
system.cpu0.commit.committedInstType_0::FloatAdd          642      0.01%     65.14% # Class of committed instruction (Count)
system.cpu0.commit.committedInstType_0::FloatCmp            0      0.00%     65.14% # Class of committed instruction (Count)
system.cpu0.commit.committedInstType_0::FloatCvt           32      0.00%     65.14% # Class of committed instruction (Count)
system.cpu0.commit.committedInstType_0::FloatMult            0      0.00%     65.14% # Class of committed instruction (Count)
system.cpu0.commit.committedInstType_0::FloatMultAcc            0      0.00%     65.14% # Class of committed instruction (Count)
system.cpu0.commit.committedInstType_0::FloatDiv            0      0.00%     65.14% # Class of committed instruction (Count)
system.cpu0.commit.committedInstType_0::FloatMisc            0      0.00%     65.14% # Class of committed instruction (Count)
system.cpu0.commit.committedInstType_0::FloatSqrt            0      0.00%     65.14% # Class of committed instruction (Count)
system.cpu0.commit.committedInstType_0::SimdAdd          788      0.01%     65.15% # Class of committed instruction (Count)
system.cpu0.commit.committedInstType_0::SimdAddAcc            0      0.00%     65.15% # Class of committed instruction (Count)
system.cpu0.commit.committedInstType_0::SimdAlu       198308      2.21%     67.36% # Class of committed instruction (Count)
system.cpu0.commit.committedInstType_0::SimdCmp            6      0.00%     67.36% # Class of committed instruction (Count)
system.cpu0.commit.committedInstType_0::SimdCvt         1830      0.02%     67.38% # Class of committed instruction (Count)
system.cpu0.commit.committedInstType_0::SimdMisc         1766      0.02%     67.40% # Class of committed instruction (Count)
system.cpu0.commit.committedInstType_0::SimdMult            0      0.00%     67.40% # Class of committed instruction (Count)
system.cpu0.commit.committedInstType_0::SimdMultAcc            0      0.00%     67.40% # Class of committed instruction (Count)
system.cpu0.commit.committedInstType_0::SimdShift          482      0.01%     67.41% # Class of committed instruction (Count)
system.cpu0.commit.committedInstType_0::SimdShiftAcc            0      0.00%     67.41% # Class of committed instruction (Count)
system.cpu0.commit.committedInstType_0::SimdDiv            0      0.00%     67.41% # Class of committed instruction (Count)
system.cpu0.commit.committedInstType_0::SimdSqrt            0      0.00%     67.41% # Class of committed instruction (Count)
system.cpu0.commit.committedInstType_0::SimdFloatAdd            0      0.00%     67.41% # Class of committed instruction (Count)
system.cpu0.commit.committedInstType_0::SimdFloatAlu            0      0.00%     67.41% # Class of committed instruction (Count)
system.cpu0.commit.committedInstType_0::SimdFloatCmp            0      0.00%     67.41% # Class of committed instruction (Count)
system.cpu0.commit.committedInstType_0::SimdFloatCvt            0      0.00%     67.41% # Class of committed instruction (Count)
system.cpu0.commit.committedInstType_0::SimdFloatDiv            0      0.00%     67.41% # Class of committed instruction (Count)
system.cpu0.commit.committedInstType_0::SimdFloatMisc            0      0.00%     67.41% # Class of committed instruction (Count)
system.cpu0.commit.committedInstType_0::SimdFloatMult            0      0.00%     67.41% # Class of committed instruction (Count)
system.cpu0.commit.committedInstType_0::SimdFloatMultAcc            0      0.00%     67.41% # Class of committed instruction (Count)
system.cpu0.commit.committedInstType_0::SimdFloatSqrt            0      0.00%     67.41% # Class of committed instruction (Count)
system.cpu0.commit.committedInstType_0::SimdReduceAdd            0      0.00%     67.41% # Class of committed instruction (Count)
system.cpu0.commit.committedInstType_0::SimdReduceAlu            0      0.00%     67.41% # Class of committed instruction (Count)
system.cpu0.commit.committedInstType_0::SimdReduceCmp            0      0.00%     67.41% # Class of committed instruction (Count)
system.cpu0.commit.committedInstType_0::SimdFloatReduceAdd            0      0.00%     67.41% # Class of committed instruction (Count)
system.cpu0.commit.committedInstType_0::SimdFloatReduceCmp            0      0.00%     67.41% # Class of committed instruction (Count)
system.cpu0.commit.committedInstType_0::SimdAes            0      0.00%     67.41% # Class of committed instruction (Count)
system.cpu0.commit.committedInstType_0::SimdAesMix            0      0.00%     67.41% # Class of committed instruction (Count)
system.cpu0.commit.committedInstType_0::SimdSha1Hash            0      0.00%     67.41% # Class of committed instruction (Count)
system.cpu0.commit.committedInstType_0::SimdSha1Hash2            0      0.00%     67.41% # Class of committed instruction (Count)
system.cpu0.commit.committedInstType_0::SimdSha256Hash            0      0.00%     67.41% # Class of committed instruction (Count)
system.cpu0.commit.committedInstType_0::SimdSha256Hash2            0      0.00%     67.41% # Class of committed instruction (Count)
system.cpu0.commit.committedInstType_0::SimdShaSigma2            0      0.00%     67.41% # Class of committed instruction (Count)
system.cpu0.commit.committedInstType_0::SimdShaSigma3            0      0.00%     67.41% # Class of committed instruction (Count)
system.cpu0.commit.committedInstType_0::SimdPredAlu            0      0.00%     67.41% # Class of committed instruction (Count)
system.cpu0.commit.committedInstType_0::MemRead      1521732     16.97%     84.37% # Class of committed instruction (Count)
system.cpu0.commit.committedInstType_0::MemWrite       906246     10.10%     94.48% # Class of committed instruction (Count)
system.cpu0.commit.committedInstType_0::FloatMemRead         2046      0.02%     94.50% # Class of committed instruction (Count)
system.cpu0.commit.committedInstType_0::FloatMemWrite       493127      5.50%    100.00% # Class of committed instruction (Count)
system.cpu0.commit.committedInstType_0::IprAccess            0      0.00%    100.00% # Class of committed instruction (Count)
system.cpu0.commit.committedInstType_0::InstPrefetch            0      0.00%    100.00% # Class of committed instruction (Count)
system.cpu0.commit.committedInstType_0::total      8968578                       # Class of committed instruction (Count)
system.cpu0.commit.commitEligibleSamples       336453                       # number cycles where commit BW limit reached (Cycle)
system.cpu0.decode.idleCycles                  514546                       # Number of cycles decode is idle (Cycle)
system.cpu0.decode.blockedCycles             60445127                       # Number of cycles decode is blocked (Cycle)
system.cpu0.decode.runCycles                   669947                       # Number of cycles decode is running (Cycle)
system.cpu0.decode.unblockCycles               551010                       # Number of cycles decode is unblocking (Cycle)
system.cpu0.decode.squashCycles                  6691                       # Number of cycles decode is squashing (Cycle)
system.cpu0.decode.branchResolved              437566                       # Number of times decode resolved a branch (Count)
system.cpu0.decode.branchMispred                  803                       # Number of times decode detected a branch misprediction (Count)
system.cpu0.decode.decodedInsts               9394297                       # Number of instructions handled by decode (Count)
system.cpu0.decode.squashedInsts                 4090                       # Number of squashed instructions handled by decode (Count)
system.cpu0.fetch.icacheStallCycles            819749                       # Number of cycles fetch is stalled on an Icache miss (Cycle)
system.cpu0.fetch.insts                       5167391                       # Number of instructions fetch has processed (Count)
system.cpu0.fetch.branches                     783690                       # Number of branches that fetch encountered (Count)
system.cpu0.fetch.predictedBranches            648473                       # Number of branches that fetch has predicted taken (Count)
system.cpu0.fetch.cycles                     61239158                       # Number of cycles fetch has run and was not squashing or blocked (Cycle)
system.cpu0.fetch.squashCycles                  14956                       # Number of cycles fetch has spent squashing (Cycle)
system.cpu0.fetch.miscStallCycles                5408                       # Number of cycles fetch has spent waiting on interrupts, or bad addresses, or out of MSHRs (Cycle)
system.cpu0.fetch.pendingTrapStallCycles        12705                       # Number of stall cycles due to pending traps (Cycle)
system.cpu0.fetch.icacheWaitRetryStallCycles       102823                       # Number of stall cycles due to full MSHR (Cycle)
system.cpu0.fetch.cacheLines                   647378                       # Number of cache lines fetched (Count)
system.cpu0.fetch.icacheSquashes                 1815                       # Number of outstanding Icache misses that were squashed (Count)
system.cpu0.fetch.nisnDist::samples          62187321                       # Number of instructions fetched each cycle (Total) (Count)
system.cpu0.fetch.nisnDist::mean             0.152604                       # Number of instructions fetched each cycle (Total) (Count)
system.cpu0.fetch.nisnDist::stdev            0.993987                       # Number of instructions fetched each cycle (Total) (Count)
system.cpu0.fetch.nisnDist::underflows              0      0.00%      0.00% # Number of instructions fetched each cycle (Total) (Count)
system.cpu0.fetch.nisnDist::0                60540293     97.35%     97.35% # Number of instructions fetched each cycle (Total) (Count)
system.cpu0.fetch.nisnDist::1                   44858      0.07%     97.42% # Number of instructions fetched each cycle (Total) (Count)
system.cpu0.fetch.nisnDist::2                  116040      0.19%     97.61% # Number of instructions fetched each cycle (Total) (Count)
system.cpu0.fetch.nisnDist::3                  169529      0.27%     97.88% # Number of instructions fetched each cycle (Total) (Count)
system.cpu0.fetch.nisnDist::4                  238273      0.38%     98.27% # Number of instructions fetched each cycle (Total) (Count)
system.cpu0.fetch.nisnDist::5                  143599      0.23%     98.50% # Number of instructions fetched each cycle (Total) (Count)
system.cpu0.fetch.nisnDist::6                  148314      0.24%     98.74% # Number of instructions fetched each cycle (Total) (Count)
system.cpu0.fetch.nisnDist::7                  147806      0.24%     98.97% # Number of instructions fetched each cycle (Total) (Count)
system.cpu0.fetch.nisnDist::8                  638609      1.03%    100.00% # Number of instructions fetched each cycle (Total) (Count)
system.cpu0.fetch.nisnDist::overflows               0      0.00%    100.00% # Number of instructions fetched each cycle (Total) (Count)
system.cpu0.fetch.nisnDist::min_value               0                       # Number of instructions fetched each cycle (Total) (Count)
system.cpu0.fetch.nisnDist::max_value               8                       # Number of instructions fetched each cycle (Total) (Count)
system.cpu0.fetch.nisnDist::total            62187321                       # Number of instructions fetched each cycle (Total) (Count)
system.cpu0.fetch.branchRate                 0.012449                       # Number of branch fetches per cycle (Ratio)
system.cpu0.fetch.rate                       0.082085                       # Number of inst fetches per cycle ((Count/Cycle))
system.cpu0.iew.idleCycles                          0                       # Number of cycles IEW is idle (Cycle)
system.cpu0.iew.squashCycles                     6691                       # Number of cycles IEW is squashing (Cycle)
system.cpu0.iew.blockCycles                    677052                       # Number of cycles IEW is blocking (Cycle)
system.cpu0.iew.unblockCycles                 5174074                       # Number of cycles IEW is unblocking (Cycle)
system.cpu0.iew.dispatchedInsts               9343800                       # Number of instructions dispatched to IQ (Count)
system.cpu0.iew.dispSquashedInsts                 488                       # Number of squashed instructions skipped by dispatch (Count)
system.cpu0.iew.dispLoadInsts                 1579334                       # Number of dispatched load instructions (Count)
system.cpu0.iew.dispStoreInsts                1446106                       # Number of dispatched store instructions (Count)
system.cpu0.iew.dispNonSpecInsts                  146                       # Number of dispatched non-speculative instructions (Count)
system.cpu0.iew.iqFullEvents                     1343                       # Number of times the IQ has become full, causing a stall (Count)
system.cpu0.iew.lsqFullEvents                 5173216                       # Number of times the LSQ has become full, causing a stall (Count)
system.cpu0.iew.memOrderViolationEvents           141                       # Number of memory order violations (Count)
system.cpu0.iew.predictedTakenIncorrect           815                       # Number of branches that were predicted taken incorrectly (Count)
system.cpu0.iew.predictedNotTakenIncorrect         5070                       # Number of branches that were predicted not taken incorrectly (Count)
system.cpu0.iew.branchMispredicts                5885                       # Number of branch mispredicts detected at execute (Count)
system.cpu0.iew.instsToCommit                 9273304                       # Cumulative count of insts sent to commit (Count)
system.cpu0.iew.writebackCount                9250844                       # Cumulative count of insts written-back (Count)
system.cpu0.iew.producerInst                  5645475                       # Number of instructions producing a value (Count)
system.cpu0.iew.consumerInst                  8702303                       # Number of instructions consuming a value (Count)
system.cpu0.iew.wbRate                       0.146951                       # Insts written-back per cycle ((Count/Cycle))
system.cpu0.iew.wbFanout                     0.648733                       # Average fanout of values written-back ((Count/Count))
system.cpu0.interrupts.clk_domain.clock          8000                       # Clock period in ticks (Tick)
system.cpu0.lsq0.forwLoads                     905318                       # Number of loads that had data forwarded from stores (Count)
system.cpu0.lsq0.squashedLoads                  55556                       # Number of loads squashed (Count)
system.cpu0.lsq0.ignoredResponses                  23                       # Number of memory responses ignored because the instruction is squashed (Count)
system.cpu0.lsq0.memOrderViolation                141                       # Number of memory ordering violations (Count)
system.cpu0.lsq0.squashedStores                 46733                       # Number of stores squashed (Count)
system.cpu0.lsq0.rescheduledLoads                   4                       # Number of loads that were rescheduled (Count)
system.cpu0.lsq0.blockedByCache                   884                       # Number of times an access to memory failed due to the cache being blocked (Count)
system.cpu0.lsq0.loadToUse::samples           1523778                       # Distribution of cycle latency between the first time a load is issued and its completion (Unspecified)
system.cpu0.lsq0.loadToUse::mean             6.031850                       # Distribution of cycle latency between the first time a load is issued and its completion (Unspecified)
system.cpu0.lsq0.loadToUse::stdev           57.458109                       # Distribution of cycle latency between the first time a load is issued and its completion (Unspecified)
system.cpu0.lsq0.loadToUse::0-9               1516892     99.55%     99.55% # Distribution of cycle latency between the first time a load is issued and its completion (Unspecified)
system.cpu0.lsq0.loadToUse::10-19                   6      0.00%     99.55% # Distribution of cycle latency between the first time a load is issued and its completion (Unspecified)
system.cpu0.lsq0.loadToUse::20-29                   9      0.00%     99.55% # Distribution of cycle latency between the first time a load is issued and its completion (Unspecified)
system.cpu0.lsq0.loadToUse::30-39                  16      0.00%     99.55% # Distribution of cycle latency between the first time a load is issued and its completion (Unspecified)
system.cpu0.lsq0.loadToUse::40-49                  10      0.00%     99.55% # Distribution of cycle latency between the first time a load is issued and its completion (Unspecified)
system.cpu0.lsq0.loadToUse::50-59                  16      0.00%     99.55% # Distribution of cycle latency between the first time a load is issued and its completion (Unspecified)
system.cpu0.lsq0.loadToUse::60-69                  21      0.00%     99.55% # Distribution of cycle latency between the first time a load is issued and its completion (Unspecified)
system.cpu0.lsq0.loadToUse::70-79                  12      0.00%     99.55% # Distribution of cycle latency between the first time a load is issued and its completion (Unspecified)
system.cpu0.lsq0.loadToUse::80-89                  10      0.00%     99.55% # Distribution of cycle latency between the first time a load is issued and its completion (Unspecified)
system.cpu0.lsq0.loadToUse::90-99                  16      0.00%     99.56% # Distribution of cycle latency between the first time a load is issued and its completion (Unspecified)
system.cpu0.lsq0.loadToUse::100-109                 3      0.00%     99.56% # Distribution of cycle latency between the first time a load is issued and its completion (Unspecified)
system.cpu0.lsq0.loadToUse::110-119                13      0.00%     99.56% # Distribution of cycle latency between the first time a load is issued and its completion (Unspecified)
system.cpu0.lsq0.loadToUse::120-129                 9      0.00%     99.56% # Distribution of cycle latency between the first time a load is issued and its completion (Unspecified)
system.cpu0.lsq0.loadToUse::130-139                 6      0.00%     99.56% # Distribution of cycle latency between the first time a load is issued and its completion (Unspecified)
system.cpu0.lsq0.loadToUse::150-159                12      0.00%     99.56% # Distribution of cycle latency between the first time a load is issued and its completion (Unspecified)
system.cpu0.lsq0.loadToUse::160-169                13      0.00%     99.56% # Distribution of cycle latency between the first time a load is issued and its completion (Unspecified)
system.cpu0.lsq0.loadToUse::170-179                 3      0.00%     99.56% # Distribution of cycle latency between the first time a load is issued and its completion (Unspecified)
system.cpu0.lsq0.loadToUse::180-189                42      0.00%     99.56% # Distribution of cycle latency between the first time a load is issued and its completion (Unspecified)
system.cpu0.lsq0.loadToUse::190-199                 5      0.00%     99.56% # Distribution of cycle latency between the first time a load is issued and its completion (Unspecified)
system.cpu0.lsq0.loadToUse::200-209                 5      0.00%     99.56% # Distribution of cycle latency between the first time a load is issued and its completion (Unspecified)
system.cpu0.lsq0.loadToUse::210-219                 3      0.00%     99.56% # Distribution of cycle latency between the first time a load is issued and its completion (Unspecified)
system.cpu0.lsq0.loadToUse::220-229                 5      0.00%     99.56% # Distribution of cycle latency between the first time a load is issued and its completion (Unspecified)
system.cpu0.lsq0.loadToUse::230-239                10      0.00%     99.56% # Distribution of cycle latency between the first time a load is issued and its completion (Unspecified)
system.cpu0.lsq0.loadToUse::240-249                57      0.00%     99.57% # Distribution of cycle latency between the first time a load is issued and its completion (Unspecified)
system.cpu0.lsq0.loadToUse::250-259                 6      0.00%     99.57% # Distribution of cycle latency between the first time a load is issued and its completion (Unspecified)
system.cpu0.lsq0.loadToUse::260-269                 7      0.00%     99.57% # Distribution of cycle latency between the first time a load is issued and its completion (Unspecified)
system.cpu0.lsq0.loadToUse::270-279                 9      0.00%     99.57% # Distribution of cycle latency between the first time a load is issued and its completion (Unspecified)
system.cpu0.lsq0.loadToUse::280-289                 8      0.00%     99.57% # Distribution of cycle latency between the first time a load is issued and its completion (Unspecified)
system.cpu0.lsq0.loadToUse::290-299                18      0.00%     99.57% # Distribution of cycle latency between the first time a load is issued and its completion (Unspecified)
system.cpu0.lsq0.loadToUse::overflows            6536      0.43%    100.00% # Distribution of cycle latency between the first time a load is issued and its completion (Unspecified)
system.cpu0.lsq0.loadToUse::min_value               2                       # Distribution of cycle latency between the first time a load is issued and its completion (Unspecified)
system.cpu0.lsq0.loadToUse::max_value            1994                       # Distribution of cycle latency between the first time a load is issued and its completion (Unspecified)
system.cpu0.lsq0.loadToUse::total             1523778                       # Distribution of cycle latency between the first time a load is issued and its completion (Unspecified)
system.cpu0.mmu.dtb.rdAccesses                1572076                       # TLB accesses on read requests (Count)
system.cpu0.mmu.dtb.wrAccesses                1442501                       # TLB accesses on write requests (Count)
system.cpu0.mmu.dtb.rdMisses                     1057                       # TLB misses on read requests (Count)
system.cpu0.mmu.dtb.wrMisses                    20174                       # TLB misses on write requests (Count)
system.cpu0.mmu.dtb.walker.power_state.pwrStateResidencyTicks::UNDEFINED  31557683000                       # Cumulative time (in ticks) in various power states (Tick)
system.cpu0.mmu.itb.rdAccesses                      0                       # TLB accesses on read requests (Count)
system.cpu0.mmu.itb.wrAccesses                 649126                       # TLB accesses on write requests (Count)
system.cpu0.mmu.itb.rdMisses                        0                       # TLB misses on read requests (Count)
system.cpu0.mmu.itb.wrMisses                     2238                       # TLB misses on write requests (Count)
system.cpu0.mmu.itb.walker.power_state.pwrStateResidencyTicks::UNDEFINED  31557683000                       # Cumulative time (in ticks) in various power states (Tick)
system.cpu0.power_state.pwrStateResidencyTicks::ON  31557683000                       # Cumulative time (in ticks) in various power states (Tick)
system.cpu0.rename.squashCycles                  6691                       # Number of cycles rename is squashing (Cycle)
system.cpu0.rename.idleCycles                  725243                       # Number of cycles rename is idle (Cycle)
system.cpu0.rename.blockCycles                5941809                       # Number of cycles rename is blocking (Cycle)
system.cpu0.rename.serializeStallCycles          5727                       # count of cycles rename stalled for serializing inst (Cycle)
system.cpu0.rename.runCycles                  1008077                       # Number of cycles rename is running (Cycle)
system.cpu0.rename.unblockCycles             54499774                       # Number of cycles rename is unblocking (Cycle)
system.cpu0.rename.renamedInsts               9371583                       # Number of instructions processed by rename (Count)
system.cpu0.rename.ROBFullEvents                13508                       # Number of times rename has blocked due to ROB full (Count)
system.cpu0.rename.IQFullEvents                 19406                       # Number of times rename has blocked due to IQ full (Count)
system.cpu0.rename.LQFullEvents                 25588                       # Number of times rename has blocked due to LQ full (Count)
system.cpu0.rename.SQFullEvents              54393717                       # Number of times rename has blocked due to SQ full (Count)
system.cpu0.rename.renamedOperands           14026975                       # Number of destination operands rename has renamed (Count)
system.cpu0.rename.lookups                   29222270                       # Number of register rename lookups that rename has made (Count)
system.cpu0.rename.intLookups                11531355                       # Number of integer rename lookups (Count)
system.cpu0.rename.fpLookups                   953913                       # Number of floating rename lookups (Count)
system.cpu0.rename.committedMaps             13380672                       # Number of HB maps that are committed (Count)
system.cpu0.rename.undoneMaps                  646303                       # Number of HB maps that are undone due to squashing (Count)
system.cpu0.rename.serializing                     77                       # count of serializing insts renamed (Count)
system.cpu0.rename.tempSerializing                 65                       # count of temporary serializing insts renamed (Count)
system.cpu0.rename.skidInsts                  2933691                       # count of insts added to the skid buffer (Count)
system.cpu0.rob.reads                        71111335                       # The number of ROB reads (Count)
system.cpu0.rob.writes                       18707888                       # The number of ROB writes (Count)
system.cpu0.thread_0.numInsts                 4889053                       # Number of Instructions committed (Count)
system.cpu0.thread_0.numOps                   8968578                       # Number of Ops committed (Count)
system.cpu0.thread_0.numMemRefs                     0                       # Number of Memory References (Count)
system.cpu0.workload.numSyscalls                   56                       # Number of system calls (Count)
system.cpu1.numCycles                        60676731                       # Number of cpu cycles simulated (Cycle)
system.cpu1.numWorkItemsStarted                     0                       # Number of work items this cpu started (Count)
system.cpu1.numWorkItemsCompleted                   0                       # Number of work items this cpu completed (Count)
system.cpu1.instsAdded                        9342730                       # Number of instructions added to the IQ (excludes non-spec) (Count)
system.cpu1.nonSpecInstsAdded                     398                       # Number of non-speculative instructions added to the IQ (Count)
system.cpu1.instsIssued                       9285085                       # Number of instructions issued (Count)
system.cpu1.squashedInstsIssued                   774                       # Number of squashed instructions issued (Count)
system.cpu1.squashedInstsExamined              374550                       # Number of squashed instructions iterated over during squash; mainly for profiling (Count)
system.cpu1.squashedOperandsExamined           416758                       # Number of squashed operands that are examined and possibly removed from graph (Count)
system.cpu1.squashedNonSpecRemoved                230                       # Number of squashed non-spec instructions that were removed (Count)
system.cpu1.numIssuedDist::samples           59956790                       # Number of insts issued each cycle (Count)
system.cpu1.numIssuedDist::mean              0.154863                       # Number of insts issued each cycle (Count)
system.cpu1.numIssuedDist::stdev             0.787627                       # Number of insts issued each cycle (Count)
system.cpu1.numIssuedDist::underflows               0      0.00%      0.00% # Number of insts issued each cycle (Count)
system.cpu1.numIssuedDist::0                 56979023     95.03%     95.03% # Number of insts issued each cycle (Count)
system.cpu1.numIssuedDist::1                   823727      1.37%     96.41% # Number of insts issued each cycle (Count)
system.cpu1.numIssuedDist::2                   356207      0.59%     97.00% # Number of insts issued each cycle (Count)
system.cpu1.numIssuedDist::3                   525943      0.88%     97.88% # Number of insts issued each cycle (Count)
system.cpu1.numIssuedDist::4                   693792      1.16%     99.04% # Number of insts issued each cycle (Count)
system.cpu1.numIssuedDist::5                   279275      0.47%     99.50% # Number of insts issued each cycle (Count)
system.cpu1.numIssuedDist::6                   154219      0.26%     99.76% # Number of insts issued each cycle (Count)
system.cpu1.numIssuedDist::7                    82574      0.14%     99.90% # Number of insts issued each cycle (Count)
system.cpu1.numIssuedDist::8                    62030      0.10%    100.00% # Number of insts issued each cycle (Count)
system.cpu1.numIssuedDist::overflows                0      0.00%    100.00% # Number of insts issued each cycle (Count)
system.cpu1.numIssuedDist::min_value                0                       # Number of insts issued each cycle (Count)
system.cpu1.numIssuedDist::max_value                8                       # Number of insts issued each cycle (Count)
system.cpu1.numIssuedDist::total             59956790                       # Number of insts issued each cycle (Count)
system.cpu1.statFuBusy::No_OpClass                  0      0.00%      0.00% # attempts to use FU when none available (Count)
system.cpu1.statFuBusy::IntAlu                   4522      8.96%      8.96% # attempts to use FU when none available (Count)
system.cpu1.statFuBusy::IntMult                     0      0.00%      8.96% # attempts to use FU when none available (Count)
system.cpu1.statFuBusy::IntDiv                      0      0.00%      8.96% # attempts to use FU when none available (Count)
system.cpu1.statFuBusy::FloatAdd                    0      0.00%      8.96% # attempts to use FU when none available (Count)
system.cpu1.statFuBusy::FloatCmp                    0      0.00%      8.96% # attempts to use FU when none available (Count)
system.cpu1.statFuBusy::FloatCvt                    0      0.00%      8.96% # attempts to use FU when none available (Count)
system.cpu1.statFuBusy::FloatMult                   0      0.00%      8.96% # attempts to use FU when none available (Count)
system.cpu1.statFuBusy::FloatMultAcc                0      0.00%      8.96% # attempts to use FU when none available (Count)
system.cpu1.statFuBusy::FloatDiv                    0      0.00%      8.96% # attempts to use FU when none available (Count)
system.cpu1.statFuBusy::FloatMisc                   0      0.00%      8.96% # attempts to use FU when none available (Count)
system.cpu1.statFuBusy::FloatSqrt                   0      0.00%      8.96% # attempts to use FU when none available (Count)
system.cpu1.statFuBusy::SimdAdd                     2      0.00%      8.96% # attempts to use FU when none available (Count)
system.cpu1.statFuBusy::SimdAddAcc                  0      0.00%      8.96% # attempts to use FU when none available (Count)
system.cpu1.statFuBusy::SimdAlu                    30      0.06%      9.02% # attempts to use FU when none available (Count)
system.cpu1.statFuBusy::SimdCmp                     0      0.00%      9.02% # attempts to use FU when none available (Count)
system.cpu1.statFuBusy::SimdCvt                   103      0.20%      9.23% # attempts to use FU when none available (Count)
system.cpu1.statFuBusy::SimdMisc                    2      0.00%      9.23% # attempts to use FU when none available (Count)
system.cpu1.statFuBusy::SimdMult                    0      0.00%      9.23% # attempts to use FU when none available (Count)
system.cpu1.statFuBusy::SimdMultAcc                 0      0.00%      9.23% # attempts to use FU when none available (Count)
system.cpu1.statFuBusy::SimdShift                  69      0.14%      9.37% # attempts to use FU when none available (Count)
system.cpu1.statFuBusy::SimdShiftAcc                0      0.00%      9.37% # attempts to use FU when none available (Count)
system.cpu1.statFuBusy::SimdDiv                     0      0.00%      9.37% # attempts to use FU when none available (Count)
system.cpu1.statFuBusy::SimdSqrt                    0      0.00%      9.37% # attempts to use FU when none available (Count)
system.cpu1.statFuBusy::SimdFloatAdd                0      0.00%      9.37% # attempts to use FU when none available (Count)
system.cpu1.statFuBusy::SimdFloatAlu                0      0.00%      9.37% # attempts to use FU when none available (Count)
system.cpu1.statFuBusy::SimdFloatCmp                0      0.00%      9.37% # attempts to use FU when none available (Count)
system.cpu1.statFuBusy::SimdFloatCvt                0      0.00%      9.37% # attempts to use FU when none available (Count)
system.cpu1.statFuBusy::SimdFloatDiv                0      0.00%      9.37% # attempts to use FU when none available (Count)
system.cpu1.statFuBusy::SimdFloatMisc               0      0.00%      9.37% # attempts to use FU when none available (Count)
system.cpu1.statFuBusy::SimdFloatMult               0      0.00%      9.37% # attempts to use FU when none available (Count)
system.cpu1.statFuBusy::SimdFloatMultAcc            0      0.00%      9.37% # attempts to use FU when none available (Count)
system.cpu1.statFuBusy::SimdFloatSqrt               0      0.00%      9.37% # attempts to use FU when none available (Count)
system.cpu1.statFuBusy::SimdReduceAdd               0      0.00%      9.37% # attempts to use FU when none available (Count)
system.cpu1.statFuBusy::SimdReduceAlu               0      0.00%      9.37% # attempts to use FU when none available (Count)
system.cpu1.statFuBusy::SimdReduceCmp               0      0.00%      9.37% # attempts to use FU when none available (Count)
system.cpu1.statFuBusy::SimdFloatReduceAdd            0      0.00%      9.37% # attempts to use FU when none available (Count)
system.cpu1.statFuBusy::SimdFloatReduceCmp            0      0.00%      9.37% # attempts to use FU when none available (Count)
system.cpu1.statFuBusy::SimdAes                     0      0.00%      9.37% # attempts to use FU when none available (Count)
system.cpu1.statFuBusy::SimdAesMix                  0      0.00%      9.37% # attempts to use FU when none available (Count)
system.cpu1.statFuBusy::SimdSha1Hash                0      0.00%      9.37% # attempts to use FU when none available (Count)
system.cpu1.statFuBusy::SimdSha1Hash2               0      0.00%      9.37% # attempts to use FU when none available (Count)
system.cpu1.statFuBusy::SimdSha256Hash              0      0.00%      9.37% # attempts to use FU when none available (Count)
system.cpu1.statFuBusy::SimdSha256Hash2             0      0.00%      9.37% # attempts to use FU when none available (Count)
system.cpu1.statFuBusy::SimdShaSigma2               0      0.00%      9.37% # attempts to use FU when none available (Count)
system.cpu1.statFuBusy::SimdShaSigma3               0      0.00%      9.37% # attempts to use FU when none available (Count)
system.cpu1.statFuBusy::SimdPredAlu                 0      0.00%      9.37% # attempts to use FU when none available (Count)
system.cpu1.statFuBusy::MemRead                  4069      8.06%     17.43% # attempts to use FU when none available (Count)
system.cpu1.statFuBusy::MemWrite                38622     76.53%     93.96% # attempts to use FU when none available (Count)
system.cpu1.statFuBusy::FloatMemRead               71      0.14%     94.10% # attempts to use FU when none available (Count)
system.cpu1.statFuBusy::FloatMemWrite            2977      5.90%    100.00% # attempts to use FU when none available (Count)
system.cpu1.statFuBusy::IprAccess                   0      0.00%    100.00% # attempts to use FU when none available (Count)
system.cpu1.statFuBusy::InstPrefetch                0      0.00%    100.00% # attempts to use FU when none available (Count)
system.cpu1.statIssuedInstType_0::No_OpClass       209487      2.26%      2.26% # Number of instructions issued per FU type, per thread (Count)
system.cpu1.statIssuedInstType_0::IntAlu      5841185     62.91%     65.17% # Number of instructions issued per FU type, per thread (Count)
system.cpu1.statIssuedInstType_0::IntMult           27      0.00%     65.17% # Number of instructions issued per FU type, per thread (Count)
system.cpu1.statIssuedInstType_0::IntDiv         2517      0.03%     65.19% # Number of instructions issued per FU type, per thread (Count)
system.cpu1.statIssuedInstType_0::FloatAdd         1115      0.01%     65.20% # Number of instructions issued per FU type, per thread (Count)
system.cpu1.statIssuedInstType_0::FloatCmp            0      0.00%     65.20% # Number of instructions issued per FU type, per thread (Count)
system.cpu1.statIssuedInstType_0::FloatCvt           32      0.00%     65.21% # Number of instructions issued per FU type, per thread (Count)
system.cpu1.statIssuedInstType_0::FloatMult            0      0.00%     65.21% # Number of instructions issued per FU type, per thread (Count)
system.cpu1.statIssuedInstType_0::FloatMultAcc            0      0.00%     65.21% # Number of instructions issued per FU type, per thread (Count)
system.cpu1.statIssuedInstType_0::FloatDiv            0      0.00%     65.21% # Number of instructions issued per FU type, per thread (Count)
system.cpu1.statIssuedInstType_0::FloatMisc            0      0.00%     65.21% # Number of instructions issued per FU type, per thread (Count)
system.cpu1.statIssuedInstType_0::FloatSqrt            0      0.00%     65.21% # Number of instructions issued per FU type, per thread (Count)
system.cpu1.statIssuedInstType_0::SimdAdd         1232      0.01%     65.22% # Number of instructions issued per FU type, per thread (Count)
system.cpu1.statIssuedInstType_0::SimdAddAcc            0      0.00%     65.22% # Number of instructions issued per FU type, per thread (Count)
system.cpu1.statIssuedInstType_0::SimdAlu       203539      2.19%     67.41% # Number of instructions issued per FU type, per thread (Count)
system.cpu1.statIssuedInstType_0::SimdCmp            6      0.00%     67.41% # Number of instructions issued per FU type, per thread (Count)
system.cpu1.statIssuedInstType_0::SimdCvt         3137      0.03%     67.44% # Number of instructions issued per FU type, per thread (Count)
system.cpu1.statIssuedInstType_0::SimdMisc         2318      0.02%     67.47% # Number of instructions issued per FU type, per thread (Count)
system.cpu1.statIssuedInstType_0::SimdMult            0      0.00%     67.47% # Number of instructions issued per FU type, per thread (Count)
system.cpu1.statIssuedInstType_0::SimdMultAcc            0      0.00%     67.47% # Number of instructions issued per FU type, per thread (Count)
system.cpu1.statIssuedInstType_0::SimdShift         1204      0.01%     67.48% # Number of instructions issued per FU type, per thread (Count)
system.cpu1.statIssuedInstType_0::SimdShiftAcc            0      0.00%     67.48% # Number of instructions issued per FU type, per thread (Count)
system.cpu1.statIssuedInstType_0::SimdDiv            0      0.00%     67.48% # Number of instructions issued per FU type, per thread (Count)
system.cpu1.statIssuedInstType_0::SimdSqrt            0      0.00%     67.48% # Number of instructions issued per FU type, per thread (Count)
system.cpu1.statIssuedInstType_0::SimdFloatAdd            0      0.00%     67.48% # Number of instructions issued per FU type, per thread (Count)
system.cpu1.statIssuedInstType_0::SimdFloatAlu            0      0.00%     67.48% # Number of instructions issued per FU type, per thread (Count)
system.cpu1.statIssuedInstType_0::SimdFloatCmp            0      0.00%     67.48% # Number of instructions issued per FU type, per thread (Count)
system.cpu1.statIssuedInstType_0::SimdFloatCvt            0      0.00%     67.48% # Number of instructions issued per FU type, per thread (Count)
system.cpu1.statIssuedInstType_0::SimdFloatDiv            0      0.00%     67.48% # Number of instructions issued per FU type, per thread (Count)
system.cpu1.statIssuedInstType_0::SimdFloatMisc            0      0.00%     67.48% # Number of instructions issued per FU type, per thread (Count)
system.cpu1.statIssuedInstType_0::SimdFloatMult            0      0.00%     67.48% # Number of instructions issued per FU type, per thread (Count)
system.cpu1.statIssuedInstType_0::SimdFloatMultAcc            0      0.00%     67.48% # Number of instructions issued per FU type, per thread (Count)
system.cpu1.statIssuedInstType_0::SimdFloatSqrt            0      0.00%     67.48% # Number of instructions issued per FU type, per thread (Count)
system.cpu1.statIssuedInstType_0::SimdReduceAdd            0      0.00%     67.48% # Number of instructions issued per FU type, per thread (Count)
system.cpu1.statIssuedInstType_0::SimdReduceAlu            0      0.00%     67.48% # Number of instructions issued per FU type, per thread (Count)
system.cpu1.statIssuedInstType_0::SimdReduceCmp            0      0.00%     67.48% # Number of instructions issued per FU type, per thread (Count)
system.cpu1.statIssuedInstType_0::SimdFloatReduceAdd            0      0.00%     67.48% # Number of instructions issued per FU type, per thread (Count)
system.cpu1.statIssuedInstType_0::SimdFloatReduceCmp            0      0.00%     67.48% # Number of instructions issued per FU type, per thread (Count)
system.cpu1.statIssuedInstType_0::SimdAes            0      0.00%     67.48% # Number of instructions issued per FU type, per thread (Count)
system.cpu1.statIssuedInstType_0::SimdAesMix            0      0.00%     67.48% # Number of instructions issued per FU type, per thread (Count)
system.cpu1.statIssuedInstType_0::SimdSha1Hash            0      0.00%     67.48% # Number of instructions issued per FU type, per thread (Count)
system.cpu1.statIssuedInstType_0::SimdSha1Hash2            0      0.00%     67.48% # Number of instructions issued per FU type, per thread (Count)
system.cpu1.statIssuedInstType_0::SimdSha256Hash            0      0.00%     67.48% # Number of instructions issued per FU type, per thread (Count)
system.cpu1.statIssuedInstType_0::SimdSha256Hash2            0      0.00%     67.48% # Number of instructions issued per FU type, per thread (Count)
system.cpu1.statIssuedInstType_0::SimdShaSigma2            0      0.00%     67.48% # Number of instructions issued per FU type, per thread (Count)
system.cpu1.statIssuedInstType_0::SimdShaSigma3            0      0.00%     67.48% # Number of instructions issued per FU type, per thread (Count)
system.cpu1.statIssuedInstType_0::SimdPredAlu            0      0.00%     67.48% # Number of instructions issued per FU type, per thread (Count)
system.cpu1.statIssuedInstType_0::MemRead      1571505     16.93%     84.41% # Number of instructions issued per FU type, per thread (Count)
system.cpu1.statIssuedInstType_0::MemWrite       931818     10.04%     94.44% # Number of instructions issued per FU type, per thread (Count)
system.cpu1.statIssuedInstType_0::FloatMemRead         4756      0.05%     94.49% # Number of instructions issued per FU type, per thread (Count)
system.cpu1.statIssuedInstType_0::FloatMemWrite       511207      5.51%    100.00% # Number of instructions issued per FU type, per thread (Count)
system.cpu1.statIssuedInstType_0::IprAccess            0      0.00%    100.00% # Number of instructions issued per FU type, per thread (Count)
system.cpu1.statIssuedInstType_0::InstPrefetch            0      0.00%    100.00% # Number of instructions issued per FU type, per thread (Count)
system.cpu1.statIssuedInstType_0::total       9285085                       # Number of instructions issued per FU type, per thread (Count)
system.cpu1.issueRate                        0.153025                       # Inst issue rate ((Count/Cycle))
system.cpu1.fuBusy                              50467                       # FU busy when requested (Count)
system.cpu1.fuBusyRate                       0.005435                       # FU busy rate (busy events/executed inst) ((Count/Count))
system.cpu1.intInstQueueReads                77116347                       # Number of integer instruction queue reads (Count)
system.cpu1.intInstQueueWrites                8948265                       # Number of integer instruction queue writes (Count)
system.cpu1.intInstQueueWakeupAccesses        8536834                       # Number of integer instruction queue wakeup accesses (Count)
system.cpu1.fpInstQueueReads                  1461854                       # Number of floating instruction queue reads (Count)
system.cpu1.fpInstQueueWrites                  769544                       # Number of floating instruction queue writes (Count)
system.cpu1.fpInstQueueWakeupAccesses          713420                       # Number of floating instruction queue wakeup accesses (Count)
system.cpu1.vecInstQueueReads                       0                       # Number of vector instruction queue reads (Count)
system.cpu1.vecInstQueueWrites                      0                       # Number of vector instruction queue writes (Count)
system.cpu1.vecInstQueueWakeupAccesses              0                       # Number of vector instruction queue wakeup accesses (Count)
system.cpu1.intAluAccesses                    8393559                       # Number of integer alu accesses (Count)
system.cpu1.fpAluAccesses                      732506                       # Number of floating point alu accesses (Count)
system.cpu1.vecAluAccesses                          0                       # Number of vector alu accesses (Count)
system.cpu1.numInsts                          9277998                       # Number of executed instructions (Count)
system.cpu1.numLoadInsts                      1574537                       # Number of load instructions executed (Count)
system.cpu1.numSquashedInsts                     7087                       # Number of squashed instructions skipped in execute (Count)
system.cpu1.numSwp                                  0                       # Number of swp insts executed (Count)
system.cpu1.numNop                                  0                       # Number of nop insts executed (Count)
system.cpu1.numRefs                           3016972                       # Number of memory reference insts executed (Count)
system.cpu1.numBranches                        759501                       # Number of branches executed (Count)
system.cpu1.numStoreInsts                     1442435                       # Number of stores executed (Count)
system.cpu1.numRate                          0.152909                       # Inst execution rate ((Count/Cycle))
[...]
system.ruby.network.ext_out_link_utilization     23413820                       (Unspecified)
system.ruby.network.flit_network_latency |922275454000                       |979471848500                       | 83939026500                       (Unspecified)
system.ruby.network.flit_queueing_latency |  9546101500                       |  6963442000                       |   614166500                       (Unspecified)
system.ruby.network.flits_injected       |     8471721     36.18%     36.18% |    13713768     58.57%     94.75% |     1228334      5.25%    100.00% (Unspecified)
system.ruby.network.flits_injected::total     23413823                       (Unspecified)
system.ruby.network.flits_received       |     8471720     36.18%     36.18% |    13713767     58.57%     94.75% |     1228333      5.25%    100.00% (Unspecified)
system.ruby.network.flits_received::total     23413820                       (Unspecified)
system.ruby.network.int_link_utilization     58888656                       (Unspecified)
system.ruby.network.packet_network_latency |389940269500                       |317755352000                       | 83939026500                       (Unspecified)
system.ruby.network.packet_queueing_latency |  4619589500                       |  1882084000                       |   614166500                       (Unspecified)
system.ruby.network.packets_injected     |     3718909     42.91%     42.91% |     3718908     42.91%     85.83% |     1228334     14.17%    100.00% (Unspecified)
system.ruby.network.packets_injected::total      8666151                       (Unspecified)
system.ruby.network.packets_received     |     3718908     42.91%     42.91% |     3718907     42.91%     85.83% |     1228333     14.17%    100.00% (Unspecified)
system.ruby.network.packets_received::total      8666148                       (Unspecified)
system.ruby.network.routers00.Var_1                 2                       (Unspecified)
system.ruby.network.routers00.Var_2               285                       (Unspecified)
system.ruby.network.routers00.Var_3               980                       (Unspecified)
system.ruby.network.routers00.all_counts       231526                       (Unspecified)
system.ruby.network.routers00.buffer_reads      3674100                       (Unspecified)
system.ruby.network.routers00.buffer_writes      3674100                       (Unspecified)
system.ruby.network.routers00.crossbar_activity      3674100                       (Unspecified)
system.ruby.network.routers00.detour_counts          491                       (Unspecified)
system.ruby.network.routers00.regular_var            0                       (Unspecified)
system.ruby.network.routers00.risk_counts          982                       (Unspecified)
system.ruby.network.routers00.sw_input_arbiter_activity      3690611                       (Unspecified)
system.ruby.network.routers00.sw_output_arbiter_activity      3674100                       (Unspecified)
system.ruby.network.routers01.Var_1                 2                       (Unspecified)
system.ruby.network.routers01.Var_2               290                       (Unspecified)
system.ruby.network.routers01.Var_3              1546                       (Unspecified)
system.ruby.network.routers01.all_counts       231491                       (Unspecified)
system.ruby.network.routers01.buffer_reads      5166703                       (Unspecified)
system.ruby.network.routers01.buffer_writes      5166703                       (Unspecified)
system.ruby.network.routers01.crossbar_activity      5166703                       (Unspecified)
system.ruby.network.routers01.detour_counts          798                       (Unspecified)
system.ruby.network.routers01.regular_var            0                       (Unspecified)
system.ruby.network.routers01.risk_counts         1546                       (Unspecified)
system.ruby.network.routers01.sw_input_arbiter_activity      5203291                       (Unspecified)
system.ruby.network.routers01.sw_output_arbiter_activity      5166703                       (Unspecified)
system.ruby.network.routers02.Var_1                 1                       (Unspecified)
system.ruby.network.routers02.Var_2               283                       (Unspecified)
system.ruby.network.routers02.Var_3              1560                       (Unspecified)
system.ruby.network.routers02.all_counts       231516                       (Unspecified)
system.ruby.network.routers02.buffer_reads      5163835                       (Unspecified)
system.ruby.network.routers02.buffer_writes      5163835                       (Unspecified)
system.ruby.network.routers02.crossbar_activity      5163835                       (Unspecified)
system.ruby.network.routers02.detour_counts          772                       (Unspecified)
system.ruby.network.routers02.regular_var            0                       (Unspecified)
system.ruby.network.routers02.risk_counts         1563                       (Unspecified)
system.ruby.network.routers02.sw_input_arbiter_activity      5200245                       (Unspecified)
system.ruby.network.routers02.sw_output_arbiter_activity      5163835                       (Unspecified)
system.ruby.network.routers03.Var_1                 1                       (Unspecified)
system.ruby.network.routers03.Var_2               294                       (Unspecified)
system.ruby.network.routers03.Var_3               974                       (Unspecified)
system.ruby.network.routers03.all_counts       231505                       (Unspecified)
system.ruby.network.routers03.buffer_reads      3667912                       (Unspecified)
system.ruby.network.routers03.buffer_writes      3667912                       (Unspecified)
system.ruby.network.routers03.crossbar_activity      3667912                       (Unspecified)
system.ruby.network.routers03.detour_counts          479                       (Unspecified)
system.ruby.network.routers03.regular_var            0                       (Unspecified)
system.ruby.network.routers03.risk_counts          975                       (Unspecified)
system.ruby.network.routers03.sw_input_arbiter_activity      3684851                       (Unspecified)
system.ruby.network.routers03.sw_output_arbiter_activity      3667912                       (Unspecified)
system.ruby.network.routers04.Var_1                 3                       (Unspecified)
system.ruby.network.routers04.Var_2               295                       (Unspecified)
system.ruby.network.routers04.Var_3             36231                       (Unspecified)
system.ruby.network.routers04.all_counts       231488                       (Unspecified)
system.ruby.network.routers04.buffer_reads      5109320                       (Unspecified)
system.ruby.network.routers04.buffer_writes      5109320                       (Unspecified)
system.ruby.network.routers04.crossbar_activity      5109320                       (Unspecified)
system.ruby.network.routers04.detour_counts        17970                       (Unspecified)
system.ruby.network.routers04.regular_var            0                       (Unspecified)
system.ruby.network.routers04.risk_counts        36231                       (Unspecified)
system.ruby.network.routers04.sw_input_arbiter_activity      5143772                       (Unspecified)
system.ruby.network.routers04.sw_output_arbiter_activity      5109320                       (Unspecified)
system.ruby.network.routers05.Var_1                 2                       (Unspecified)
system.ruby.network.routers05.Var_2               296                       (Unspecified)
system.ruby.network.routers05.Var_3             36650                       (Unspecified)
system.ruby.network.routers05.all_counts       231487                       (Unspecified)
system.ruby.network.routers05.buffer_reads      6625843                       (Unspecified)
system.ruby.network.routers05.buffer_writes      6625843                       (Unspecified)
system.ruby.network.routers05.crossbar_activity      6625843                       (Unspecified)
system.ruby.network.routers05.detour_counts        18223                       (Unspecified)
system.ruby.network.routers05.regular_var            0                       (Unspecified)
system.ruby.network.routers05.risk_counts        36651                       (Unspecified)
system.ruby.network.routers05.sw_input_arbiter_activity      6679933                       (Unspecified)
system.ruby.network.routers05.sw_output_arbiter_activity      6625843                       (Unspecified)
system.ruby.network.routers06.Var_1                 2                       (Unspecified)
system.ruby.network.routers06.Var_2               290                       (Unspecified)
system.ruby.network.routers06.Var_3             36666                       (Unspecified)
system.ruby.network.routers06.all_counts       231514                       (Unspecified)
system.ruby.network.routers06.buffer_reads      6629816                       (Unspecified)
system.ruby.network.routers06.buffer_writes      6629816                       (Unspecified)
system.ruby.network.routers06.crossbar_activity      6629816                       (Unspecified)
system.ruby.network.routers06.detour_counts        18345                       (Unspecified)
system.ruby.network.routers06.regular_var            0                       (Unspecified)
system.ruby.network.routers06.risk_counts        36668                       (Unspecified)
system.ruby.network.routers06.sw_input_arbiter_activity      6683846                       (Unspecified)
system.ruby.network.routers06.sw_output_arbiter_activity      6629816                       (Unspecified)
system.ruby.network.routers07.Var_1                 2                       (Unspecified)
system.ruby.network.routers07.Var_2               288                       (Unspecified)
system.ruby.network.routers07.Var_3             36226                       (Unspecified)
system.ruby.network.routers07.all_counts       231495                       (Unspecified)
system.ruby.network.routers07.buffer_reads      5110672                       (Unspecified)
system.ruby.network.routers07.buffer_writes      5110672                       (Unspecified)
system.ruby.network.routers07.crossbar_activity      5110672                       (Unspecified)
system.ruby.network.routers07.detour_counts        18216                       (Unspecified)
system.ruby.network.routers07.regular_var            1                       (Unspecified)
system.ruby.network.routers07.risk_counts        36226                       (Unspecified)
system.ruby.network.routers07.sw_input_arbiter_activity      5145040                       (Unspecified)
system.ruby.network.routers07.sw_output_arbiter_activity      5110672                       (Unspecified)
system.ruby.network.routers08.Var_1                 1                       (Unspecified)
system.ruby.network.routers08.Var_2               289                       (Unspecified)
system.ruby.network.routers08.Var_3             36257                       (Unspecified)
system.ruby.network.routers08.all_counts       231525                       (Unspecified)
system.ruby.network.routers08.buffer_reads      5111444                       (Unspecified)
system.ruby.network.routers08.buffer_writes      5111444                       (Unspecified)
system.ruby.network.routers08.crossbar_activity      5111444                       (Unspecified)
system.ruby.network.routers08.detour_counts        18128                       (Unspecified)
system.ruby.network.routers08.regular_var            0                       (Unspecified)
system.ruby.network.routers08.risk_counts        36260                       (Unspecified)
system.ruby.network.routers08.sw_input_arbiter_activity      5145447                       (Unspecified)
system.ruby.network.routers08.sw_output_arbiter_activity      5111444                       (Unspecified)
system.ruby.network.routers09.Var_1                 1                       (Unspecified)
system.ruby.network.routers09.Var_2               297                       (Unspecified)
system.ruby.network.routers09.Var_3             36727                       (Unspecified)
system.ruby.network.routers09.all_counts       231500                       (Unspecified)
system.ruby.network.routers09.buffer_reads      6632536                       (Unspecified)
system.ruby.network.routers09.buffer_writes      6632536                       (Unspecified)
system.ruby.network.routers09.crossbar_activity      6632536                       (Unspecified)
system.ruby.network.routers09.detour_counts        18487                       (Unspecified)
system.ruby.network.routers09.regular_var            0                       (Unspecified)
system.ruby.network.routers09.risk_counts        36727                       (Unspecified)
system.ruby.network.routers09.sw_input_arbiter_activity      6686575                       (Unspecified)
system.ruby.network.routers09.sw_output_arbiter_activity      6632536                       (Unspecified)
system.ruby.network.routers10.Var_1                 2                       (Unspecified)
system.ruby.network.routers10.Var_2               290                       (Unspecified)
system.ruby.network.routers10.Var_3             36821                       (Unspecified)
system.ruby.network.routers10.all_counts       231510                       (Unspecified)
system.ruby.network.routers10.buffer_reads      6633657                       (Unspecified)
system.ruby.network.routers10.buffer_writes      6633657                       (Unspecified)
system.ruby.network.routers10.crossbar_activity      6633657                       (Unspecified)
system.ruby.network.routers10.detour_counts        18365                       (Unspecified)
system.ruby.network.routers10.regular_var            1                       (Unspecified)
system.ruby.network.routers10.risk_counts        36823                       (Unspecified)
system.ruby.network.routers10.sw_input_arbiter_activity      6688591                       (Unspecified)
system.ruby.network.routers10.sw_output_arbiter_activity      6633657                       (Unspecified)
system.ruby.network.routers11.Var_1                 2                       (Unspecified)
system.ruby.network.routers11.Var_2               279                       (Unspecified)
system.ruby.network.routers11.Var_3             36153                       (Unspecified)
system.ruby.network.routers11.all_counts       231491                       (Unspecified)
system.ruby.network.routers11.buffer_reads      5113907                       (Unspecified)
system.ruby.network.routers11.buffer_writes      5113907                       (Unspecified)
system.ruby.network.routers11.crossbar_activity      5113907                       (Unspecified)
system.ruby.network.routers11.detour_counts        17961                       (Unspecified)
system.ruby.network.routers11.regular_var            0                       (Unspecified)
system.ruby.network.routers11.risk_counts        36158                       (Unspecified)
system.ruby.network.routers11.sw_input_arbiter_activity      5148743                       (Unspecified)
system.ruby.network.routers11.sw_output_arbiter_activity      5113907                       (Unspecified)
system.ruby.network.routers12.Var_1                 0                       (Unspecified)
system.ruby.network.routers12.Var_2               283                       (Unspecified)
system.ruby.network.routers12.Var_3              1034                       (Unspecified)
system.ruby.network.routers12.all_counts       231522                       (Unspecified)
system.ruby.network.routers12.buffer_reads      3670343                       (Unspecified)
system.ruby.network.routers12.buffer_writes      3670343                       (Unspecified)
system.ruby.network.routers12.crossbar_activity      3670343                       (Unspecified)
system.ruby.network.routers12.detour_counts          505                       (Unspecified)
system.ruby.network.routers12.regular_var            0                       (Unspecified)
system.ruby.network.routers12.risk_counts         1034                       (Unspecified)
system.ruby.network.routers12.sw_input_arbiter_activity      3687297                       (Unspecified)
system.ruby.network.routers12.sw_output_arbiter_activity      3670343                       (Unspecified)
system.ruby.network.routers13.Var_1                 2                       (Unspecified)
system.ruby.network.routers13.Var_2               296                       (Unspecified)
system.ruby.network.routers13.Var_3              1563                       (Unspecified)
system.ruby.network.routers13.all_counts       231494                       (Unspecified)
system.ruby.network.routers13.buffer_reads      5164513                       (Unspecified)
system.ruby.network.routers13.buffer_writes      5164513                       (Unspecified)
system.ruby.network.routers13.crossbar_activity      5164513                       (Unspecified)
system.ruby.network.routers13.detour_counts          745                       (Unspecified)
system.ruby.network.routers13.regular_var            0                       (Unspecified)
system.ruby.network.routers13.risk_counts         1565                       (Unspecified)
system.ruby.network.routers13.sw_input_arbiter_activity      5201327                       (Unspecified)
system.ruby.network.routers13.sw_output_arbiter_activity      5164513                       (Unspecified)
system.ruby.network.routers14.Var_1                 2                       (Unspecified)
system.ruby.network.routers14.Var_2               284                       (Unspecified)
system.ruby.network.routers14.Var_3              1505                       (Unspecified)
system.ruby.network.routers14.all_counts       231512                       (Unspecified)
system.ruby.network.routers14.buffer_reads      5160934                       (Unspecified)
system.ruby.network.routers14.buffer_writes      5160934                       (Unspecified)
system.ruby.network.routers14.crossbar_activity      5160934                       (Unspecified)
system.ruby.network.routers14.detour_counts          749                       (Unspecified)
system.ruby.network.routers14.regular_var            0                       (Unspecified)
system.ruby.network.routers14.risk_counts         1507                       (Unspecified)
system.ruby.network.routers14.sw_input_arbiter_activity      5197924                       (Unspecified)
system.ruby.network.routers14.sw_output_arbiter_activity      5160934                       (Unspecified)
system.ruby.network.routers15.Var_1                 2                       (Unspecified)
system.ruby.network.routers15.Var_2               285                       (Unspecified)
system.ruby.network.routers15.Var_3               990                       (Unspecified)
system.ruby.network.routers15.all_counts       231499                       (Unspecified)
system.ruby.network.routers15.buffer_reads      3666942                       (Unspecified)
system.ruby.network.routers15.buffer_writes      3666942                       (Unspecified)
system.ruby.network.routers15.crossbar_activity      3666941                       (Unspecified)
system.ruby.network.routers15.detour_counts          488                       (Unspecified)
system.ruby.network.routers15.regular_var            0                       (Unspecified)
system.ruby.network.routers15.risk_counts          990                       (Unspecified)
system.ruby.network.routers15.sw_input_arbiter_activity      3683730                       (Unspecified)
system.ruby.network.routers15.sw_output_arbiter_activity      3666941                       (Unspecified)

---------- End Simulation Statistics   ----------
