
---------- Begin Simulation Statistics ----------
simSeconds                                   0.022532                       # Number of seconds simulated (Second)
simTicks                                  22531773500                       # Number of ticks simulated (Tick)
finalTick                                 22531773500                       # Number of ticks from beginning of simulation (restored from checkpoints and never reset) (Tick)
simFreq                                  1000000000000                       # The number of ticks per simulated second ((Tick/Second))
hostSeconds                                   4829.74                       # Real time elapsed on the host (Second)
hostTickRate                                  4665219                       # The number of ticks simulated per host second (ticks/s) ((Tick/Second))
hostMemory                                   40806052                       # Number of bytes of host memory used (Byte)
simInsts                                    777572866                       # Number of instructions simulated (Count)
simOps                                     1458429047                       # Number of ops (including micro ops) simulated (Count)
hostInstRate                                   160997                       # Simulator instruction rate (inst/s) ((Count/Second))
hostOpRate                                     301969                       # Simulator op (including micro ops) rate (op/s) ((Count/Second))
system.clk_domain.clock                          1000                       # Clock period in ticks (Tick)
system.cpu0.numCycles                        45063548                       # Number of cpu cycles simulated (Cycle)
system.cpu0.numWorkItemsStarted                     0                       # Number of work items this cpu started (Count)
system.cpu0.numWorkItemsCompleted                   0                       # Number of work items this cpu completed (Count)
system.cpu0.instsAdded                       90967654                       # Number of instructions added to the IQ (excludes non-spec) (Count)
system.cpu0.nonSpecInstsAdded                    1762                       # Number of non-speculative instructions added to the IQ (Count)
system.cpu0.instsIssued                      90509548                       # Number of instructions issued (Count)
system.cpu0.squashedInstsIssued                  2737                       # Number of squashed instructions issued (Count)
system.cpu0.squashedInstsExamined             1239650                       # Number of squashed instructions iterated over during squash; mainly for profiling (Count)
system.cpu0.squashedOperandsExamined          2638956                       # Number of squashed operands that are examined and possibly removed from graph (Count)
system.cpu0.squashedNonSpecRemoved                143                       # Number of squashed non-spec instructions that were removed (Count)
system.cpu0.numIssuedDist::samples           42885801                       # Number of insts issued each cycle (Count)
system.cpu0.numIssuedDist::mean              2.110478                       # Number of insts issued each cycle (Count)
system.cpu0.numIssuedDist::stdev             2.343130                       # Number of insts issued each cycle (Count)
system.cpu0.numIssuedDist::underflows               0      0.00%      0.00% # Number of insts issued each cycle (Count)
system.cpu0.numIssuedDist::0                 19386050     45.20%     45.20% # Number of insts issued each cycle (Count)
system.cpu0.numIssuedDist::1                  1977428      4.61%     49.81% # Number of insts issued each cycle (Count)
system.cpu0.numIssuedDist::2                  4024470      9.38%     59.20% # Number of insts issued each cycle (Count)
system.cpu0.numIssuedDist::3                  5082601     11.85%     71.05% # Number of insts issued each cycle (Count)
system.cpu0.numIssuedDist::4                  4642373     10.82%     81.88% # Number of insts issued each cycle (Count)
system.cpu0.numIssuedDist::5                  2988083      6.97%     88.84% # Number of insts issued each cycle (Count)
system.cpu0.numIssuedDist::6                  2870120      6.69%     95.54% # Number of insts issued each cycle (Count)
system.cpu0.numIssuedDist::7                   812658      1.89%     97.43% # Number of insts issued each cycle (Count)
system.cpu0.numIssuedDist::8                  1102018      2.57%    100.00% # Number of insts issued each cycle (Count)
system.cpu0.numIssuedDist::overflows                0      0.00%    100.00% # Number of insts issued each cycle (Count)
system.cpu0.numIssuedDist::min_value                0                       # Number of insts issued each cycle (Count)
system.cpu0.numIssuedDist::max_value                8                       # Number of insts issued each cycle (Count)
system.cpu0.numIssuedDist::total             42885801                       # Number of insts issued each cycle (Count)
system.cpu0.statFuBusy::No_OpClass                  0      0.00%      0.00% # attempts to use FU when none available (Count)
system.cpu0.statFuBusy::IntAlu                 487135     66.83%     66.83% # attempts to use FU when none available (Count)
system.cpu0.statFuBusy::IntMult                     0      0.00%     66.83% # attempts to use FU when none available (Count)
system.cpu0.statFuBusy::IntDiv                      0      0.00%     66.83% # attempts to use FU when none available (Count)
system.cpu0.statFuBusy::FloatAdd                    0      0.00%     66.83% # attempts to use FU when none available (Count)
system.cpu0.statFuBusy::FloatCmp                    0      0.00%     66.83% # attempts to use FU when none available (Count)
system.cpu0.statFuBusy::FloatCvt                    0      0.00%     66.83% # attempts to use FU when none available (Count)
system.cpu0.statFuBusy::FloatMult                   0      0.00%     66.83% # attempts to use FU when none available (Count)
system.cpu0.statFuBusy::FloatMultAcc                0      0.00%     66.83% # attempts to use FU when none available (Count)
system.cpu0.statFuBusy::FloatDiv                    0      0.00%     66.83% # attempts to use FU when none available (Count)
system.cpu0.statFuBusy::FloatMisc                   0      0.00%     66.83% # attempts to use FU when none available (Count)
system.cpu0.statFuBusy::FloatSqrt                   0      0.00%     66.83% # attempts to use FU when none available (Count)
system.cpu0.statFuBusy::SimdAdd                    12      0.00%     66.83% # attempts to use FU when none available (Count)
system.cpu0.statFuBusy::SimdAddAcc                  0      0.00%     66.83% # attempts to use FU when none available (Count)
system.cpu0.statFuBusy::SimdAlu                   229      0.03%     66.87% # attempts to use FU when none available (Count)
system.cpu0.statFuBusy::SimdCmp                     0      0.00%     66.87% # attempts to use FU when none available (Count)
system.cpu0.statFuBusy::SimdCvt                   645      0.09%     66.95% # attempts to use FU when none available (Count)
system.cpu0.statFuBusy::SimdMisc                   21      0.00%     66.96% # attempts to use FU when none available (Count)
system.cpu0.statFuBusy::SimdMult                    0      0.00%     66.96% # attempts to use FU when none available (Count)
system.cpu0.statFuBusy::SimdMultAcc                 0      0.00%     66.96% # attempts to use FU when none available (Count)
system.cpu0.statFuBusy::SimdShift                 550      0.08%     67.03% # attempts to use FU when none available (Count)
system.cpu0.statFuBusy::SimdShiftAcc                0      0.00%     67.03% # attempts to use FU when none available (Count)
system.cpu0.statFuBusy::SimdDiv                     0      0.00%     67.03% # attempts to use FU when none available (Count)
system.cpu0.statFuBusy::SimdSqrt                    0      0.00%     67.03% # attempts to use FU when none available (Count)
system.cpu0.statFuBusy::SimdFloatAdd                0      0.00%     67.03% # attempts to use FU when none available (Count)
system.cpu0.statFuBusy::SimdFloatAlu                0      0.00%     67.03% # attempts to use FU when none available (Count)
system.cpu0.statFuBusy::SimdFloatCmp                0      0.00%     67.03% # attempts to use FU when none available (Count)
system.cpu0.statFuBusy::SimdFloatCvt                0      0.00%     67.03% # attempts to use FU when none available (Count)
system.cpu0.statFuBusy::SimdFloatDiv                0      0.00%     67.03% # attempts to use FU when none available (Count)
system.cpu0.statFuBusy::SimdFloatMisc               0      0.00%     67.03% # attempts to use FU when none available (Count)
system.cpu0.statFuBusy::SimdFloatMult               0      0.00%     67.03% # attempts to use FU when none available (Count)
system.cpu0.statFuBusy::SimdFloatMultAcc            0      0.00%     67.03% # attempts to use FU when none available (Count)
system.cpu0.statFuBusy::SimdFloatSqrt               0      0.00%     67.03% # attempts to use FU when none available (Count)
system.cpu0.statFuBusy::SimdReduceAdd               0      0.00%     67.03% # attempts to use FU when none available (Count)
system.cpu0.statFuBusy::SimdReduceAlu               0      0.00%     67.03% # attempts to use FU when none available (Count)
system.cpu0.statFuBusy::SimdReduceCmp               0      0.00%     67.03% # attempts to use FU when none available (Count)
system.cpu0.statFuBusy::SimdFloatReduceAdd            0      0.00%     67.03% # attempts to use FU when none available (Count)
system.cpu0.statFuBusy::SimdFloatReduceCmp            0      0.00%     67.03% # attempts to use FU when none available (Count)
system.cpu0.statFuBusy::SimdAes                     0      0.00%     67.03% # attempts to use FU when none available (Count)
system.cpu0.statFuBusy::SimdAesMix                  0      0.00%     67.03% # attempts to use FU when none available (Count)
system.cpu0.statFuBusy::SimdSha1Hash                0      0.00%     67.03% # attempts to use FU when none available (Count)
system.cpu0.statFuBusy::SimdSha1Hash2               0      0.00%     67.03% # attempts to use FU when none available (Count)
system.cpu0.statFuBusy::SimdSha256Hash              0      0.00%     67.03% # attempts to use FU when none available (Count)
system.cpu0.statFuBusy::SimdSha256Hash2             0      0.00%     67.03% # attempts to use FU when none available (Count)
system.cpu0.statFuBusy::SimdShaSigma2               0      0.00%     67.03% # attempts to use FU when none available (Count)
system.cpu0.statFuBusy::SimdShaSigma3               0      0.00%     67.03% # attempts to use FU when none available (Count)
system.cpu0.statFuBusy::SimdPredAlu                 0      0.00%     67.03% # attempts to use FU when none available (Count)
system.cpu0.statFuBusy::MemRead                 14812      2.03%     69.07% # attempts to use FU when none available (Count)
system.cpu0.statFuBusy::MemWrite               224022     30.74%     99.80% # attempts to use FU when none available (Count)
system.cpu0.statFuBusy::FloatMemRead             1070      0.15%     99.95% # attempts to use FU when none available (Count)
system.cpu0.statFuBusy::FloatMemWrite             385      0.05%    100.00% # attempts to use FU when none available (Count)
system.cpu0.statFuBusy::IprAccess                   0      0.00%    100.00% # attempts to use FU when none available (Count)
system.cpu0.statFuBusy::InstPrefetch                0      0.00%    100.00% # attempts to use FU when none available (Count)
system.cpu0.statIssuedInstType_0::No_OpClass      2600943      2.87%      2.87% # Number of instructions issued per FU type, per thread (Count)
system.cpu0.statIssuedInstType_0::IntAlu     63746488     70.43%     73.30% # Number of instructions issued per FU type, per thread (Count)
system.cpu0.statIssuedInstType_0::IntMult           65      0.00%     73.30% # Number of instructions issued per FU type, per thread (Count)
system.cpu0.statIssuedInstType_0::IntDiv        42960      0.05%     73.35% # Number of instructions issued per FU type, per thread (Count)
system.cpu0.statIssuedInstType_0::FloatAdd        10253      0.01%     73.36% # Number of instructions issued per FU type, per thread (Count)
system.cpu0.statIssuedInstType_0::FloatCmp            0      0.00%     73.36% # Number of instructions issued per FU type, per thread (Count)
system.cpu0.statIssuedInstType_0::FloatCvt         1854      0.00%     73.37% # Number of instructions issued per FU type, per thread (Count)
system.cpu0.statIssuedInstType_0::FloatMult            0      0.00%     73.37% # Number of instructions issued per FU type, per thread (Count)
system.cpu0.statIssuedInstType_0::FloatMultAcc            0      0.00%     73.37% # Number of instructions issued per FU type, per thread (Count)
system.cpu0.statIssuedInstType_0::FloatDiv            0      0.00%     73.37% # Number of instructions issued per FU type, per thread (Count)
system.cpu0.statIssuedInstType_0::FloatMisc            0      0.00%     73.37% # Number of instructions issued per FU type, per thread (Count)
system.cpu0.statIssuedInstType_0::FloatSqrt            0      0.00%     73.37% # Number of instructions issued per FU type, per thread (Count)
system.cpu0.statIssuedInstType_0::SimdAdd         9538      0.01%     73.38% # Number of instructions issued per FU type, per thread (Count)
system.cpu0.statIssuedInstType_0::SimdAddAcc            0      0.00%     73.38% # Number of instructions issued per FU type, per thread (Count)
system.cpu0.statIssuedInstType_0::SimdAlu        21506      0.02%     73.40% # Number of instructions issued per FU type, per thread (Count)
system.cpu0.statIssuedInstType_0::SimdCmp           12      0.00%     73.40% # Number of instructions issued per FU type, per thread (Count)
system.cpu0.statIssuedInstType_0::SimdCvt        21016      0.02%     73.42% # Number of instructions issued per FU type, per thread (Count)
system.cpu0.statIssuedInstType_0::SimdMisc        17811      0.02%     73.44% # Number of instructions issued per FU type, per thread (Count)
system.cpu0.statIssuedInstType_0::SimdMult            0      0.00%     73.44% # Number of instructions issued per FU type, per thread (Count)
system.cpu0.statIssuedInstType_0::SimdMultAcc            0      0.00%     73.44% # Number of instructions issued per FU type, per thread (Count)
system.cpu0.statIssuedInstType_0::SimdShift         6978      0.01%     73.45% # Number of instructions issued per FU type, per thread (Count)
system.cpu0.statIssuedInstType_0::SimdShiftAcc            0      0.00%     73.45% # Number of instructions issued per FU type, per thread (Count)
system.cpu0.statIssuedInstType_0::SimdDiv            0      0.00%     73.45% # Number of instructions issued per FU type, per thread (Count)
system.cpu0.statIssuedInstType_0::SimdSqrt            0      0.00%     73.45% # Number of instructions issued per FU type, per thread (Count)
system.cpu0.statIssuedInstType_0::SimdFloatAdd            9      0.00%     73.45% # Number of instructions issued per FU type, per thread (Count)
system.cpu0.statIssuedInstType_0::SimdFloatAlu            0      0.00%     73.45% # Number of instructions issued per FU type, per thread (Count)
system.cpu0.statIssuedInstType_0::SimdFloatCmp            0      0.00%     73.45% # Number of instructions issued per FU type, per thread (Count)
system.cpu0.statIssuedInstType_0::SimdFloatCvt           13      0.00%     73.45% # Number of instructions issued per FU type, per thread (Count)
system.cpu0.statIssuedInstType_0::SimdFloatDiv            1      0.00%     73.45% # Number of instructions issued per FU type, per thread (Count)
system.cpu0.statIssuedInstType_0::SimdFloatMisc            0      0.00%     73.45% # Number of instructions issued per FU type, per thread (Count)
system.cpu0.statIssuedInstType_0::SimdFloatMult            8      0.00%     73.45% # Number of instructions issued per FU type, per thread (Count)
system.cpu0.statIssuedInstType_0::SimdFloatMultAcc            0      0.00%     73.45% # Number of instructions issued per FU type, per thread (Count)
system.cpu0.statIssuedInstType_0::SimdFloatSqrt            0      0.00%     73.45% # Number of instructions issued per FU type, per thread (Count)
system.cpu0.statIssuedInstType_0::SimdReduceAdd            0      0.00%     73.45% # Number of instructions issued per FU type, per thread (Count)
system.cpu0.statIssuedInstType_0::SimdReduceAlu            0      0.00%     73.45% # Number of instructions issued per FU type, per thread (Count)
system.cpu0.statIssuedInstType_0::SimdReduceCmp            0      0.00%     73.45% # Number of instructions issued per FU type, per thread (Count)
system.cpu0.statIssuedInstType_0::SimdFloatReduceAdd            0      0.00%     73.45% # Number of instructions issued per FU type, per thread (Count)
system.cpu0.statIssuedInstType_0::SimdFloatReduceCmp            0      0.00%     73.45% # Number of instructions issued per FU type, per thread (Count)
system.cpu0.statIssuedInstType_0::SimdAes            0      0.00%     73.45% # Number of instructions issued per FU type, per thread (Count)
system.cpu0.statIssuedInstType_0::SimdAesMix            0      0.00%     73.45% # Number of instructions issued per FU type, per thread (Count)
system.cpu0.statIssuedInstType_0::SimdSha1Hash            0      0.00%     73.45% # Number of instructions issued per FU type, per thread (Count)
system.cpu0.statIssuedInstType_0::SimdSha1Hash2            0      0.00%     73.45% # Number of instructions issued per FU type, per thread (Count)
system.cpu0.statIssuedInstType_0::SimdSha256Hash            0      0.00%     73.45% # Number of instructions issued per FU type, per thread (Count)
system.cpu0.statIssuedInstType_0::SimdSha256Hash2            0      0.00%     73.45% # Number of instructions issued per FU type, per thread (Count)
system.cpu0.statIssuedInstType_0::SimdShaSigma2            0      0.00%     73.45% # Number of instructions issued per FU type, per thread (Count)
system.cpu0.statIssuedInstType_0::SimdShaSigma3            0      0.00%     73.45% # Number of instructions issued per FU type, per thread (Count)
system.cpu0.statIssuedInstType_0::SimdPredAlu            0      0.00%     73.45% # Number of instructions issued per FU type, per thread (Count)
system.cpu0.statIssuedInstType_0::MemRead     14757216     16.30%     89.75% # Number of instructions issued per FU type, per thread (Count)
system.cpu0.statIssuedInstType_0::MemWrite      9221572     10.19%     99.94% # Number of instructions issued per FU type, per thread (Count)
system.cpu0.statIssuedInstType_0::FloatMemRead        32838      0.04%     99.98% # Number of instructions issued per FU type, per thread (Count)
system.cpu0.statIssuedInstType_0::FloatMemWrite        18467      0.02%    100.00% # Number of instructions issued per FU type, per thread (Count)
system.cpu0.statIssuedInstType_0::IprAccess            0      0.00%    100.00% # Number of instructions issued per FU type, per thread (Count)
system.cpu0.statIssuedInstType_0::InstPrefetch            0      0.00%    100.00% # Number of instructions issued per FU type, per thread (Count)
system.cpu0.statIssuedInstType_0::total      90509548                       # Number of instructions issued per FU type, per thread (Count)
system.cpu0.issueRate                        2.008487                       # Inst issue rate ((Count/Cycle))
system.cpu0.fuBusy                             728881                       # FU busy when requested (Count)
system.cpu0.fuBusyRate                       0.008053                       # FU busy rate (busy events/executed inst) ((Count/Count))
system.cpu0.intInstQueueReads               224339536                       # Number of integer instruction queue reads (Count)
system.cpu0.intInstQueueWrites               91978066                       # Number of integer instruction queue writes (Count)
system.cpu0.intInstQueueWakeupAccesses       90300365                       # Number of integer instruction queue wakeup accesses (Count)
system.cpu0.fpInstQueueReads                   296979                       # Number of floating instruction queue reads (Count)
system.cpu0.fpInstQueueWrites                  231753                       # Number of floating instruction queue writes (Count)
system.cpu0.fpInstQueueWakeupAccesses          139963                       # Number of floating instruction queue wakeup accesses (Count)
system.cpu0.vecInstQueueReads                       0                       # Number of vector instruction queue reads (Count)
system.cpu0.vecInstQueueWrites                      0                       # Number of vector instruction queue writes (Count)
system.cpu0.vecInstQueueWakeupAccesses              0                       # Number of vector instruction queue wakeup accesses (Count)
system.cpu0.intAluAccesses                   88487822                       # Number of integer alu accesses (Count)
system.cpu0.fpAluAccesses                      149664                       # Number of floating point alu accesses (Count)
system.cpu0.vecAluAccesses                          0                       # Number of vector alu accesses (Count)
system.cpu0.numInsts                         90473320                       # Number of executed instructions (Count)
system.cpu0.numLoadInsts                     14782038                       # Number of load instructions executed (Count)
system.cpu0.numSquashedInsts                    36228                       # Number of squashed instructions skipped in execute (Count)
system.cpu0.numSwp                                  0                       # Number of swp insts executed (Count)
system.cpu0.numNop                                  0                       # Number of nop insts executed (Count)
system.cpu0.numRefs                          24018972                       # Number of memory reference insts executed (Count)
system.cpu0.numBranches                       8321856                       # Number of branches executed (Count)
system.cpu0.numStoreInsts                     9236934                       # Number of stores executed (Count)
system.cpu0.numRate                          2.007683                       # Inst execution rate ((Count/Cycle))
system.cpu0.timesIdled                           4630                       # Number of times that the entire CPU went into an idle state and unscheduled itself (Count)
system.cpu0.idleCycles                        2177747                       # Total number of cycles that the CPU has spent unscheduled due to idling (Cycle)
system.cpu0.committedInsts                   47842968                       # Number of Instructions Simulated (Count)
system.cpu0.committedOps                     89729766                       # Number of Ops (including micro ops) Simulated (Count)
system.cpu0.cpi                              0.941905                       # CPI: Cycles Per Instruction ((Cycle/Count))
system.cpu0.totalCpi                         0.941905                       # CPI: Total CPI of All Threads ((Cycle/Count))
system.cpu0.ipc                              1.061678                       # IPC: Instructions Per Cycle ((Count/Cycle))
system.cpu0.totalIpc                         1.061678                       # IPC: Total IPC of All Threads ((Count/Cycle))
system.cpu0.intRegfileReads                 125688637                       # Number of integer regfile reads (Count)
system.cpu0.intRegfileWrites                 66305696                       # Number of integer regfile writes (Count)
system.cpu0.fpRegfileReads                     198005                       # Number of floating regfile reads (Count)
system.cpu0.fpRegfileWrites                    110658                       # Number of floating regfile writes (Count)
system.cpu0.ccRegfileReads                   26927374                       # number of cc regfile reads (Count)
system.cpu0.ccRegfileWrites                  18807088                       # number of cc regfile writes (Count)
system.cpu0.miscRegfileReads                 38996906                       # number of misc regfile reads (Count)
system.cpu0.miscRegfileWrites                    1035                       # number of misc regfile writes (Count)
system.cpu0.MemDepUnit__0.insertedLoads      14826174                       # Number of loads inserted to the mem dependence unit. (Count)
system.cpu0.MemDepUnit__0.insertedStores      9257998                       # Number of stores inserted to the mem dependence unit. (Count)
system.cpu0.MemDepUnit__0.conflictingLoads      1313575                       # Number of conflicting loads. (Count)
system.cpu0.MemDepUnit__0.conflictingStores       758238                       # Number of conflicting stores. (Count)
system.cpu0.MemDepUnit__1.insertedLoads             0                       # Number of loads inserted to the mem dependence unit. (Count)
system.cpu0.MemDepUnit__1.insertedStores            0                       # Number of stores inserted to the mem dependence unit. (Count)
system.cpu0.MemDepUnit__1.conflictingLoads            0                       # Number of conflicting loads. (Count)
system.cpu0.MemDepUnit__1.conflictingStores            0                       # Number of conflicting stores. (Count)
system.cpu0.MemDepUnit__2.insertedLoads             0                       # Number of loads inserted to the mem dependence unit. (Count)
system.cpu0.MemDepUnit__2.insertedStores            0                       # Number of stores inserted to the mem dependence unit. (Count)
system.cpu0.MemDepUnit__2.conflictingLoads            0                       # Number of conflicting loads. (Count)
system.cpu0.MemDepUnit__2.conflictingStores            0                       # Number of conflicting stores. (Count)
system.cpu0.MemDepUnit__3.insertedLoads             0                       # Number of loads inserted to the mem dependence unit. (Count)
system.cpu0.MemDepUnit__3.insertedStores            0                       # Number of stores inserted to the mem dependence unit. (Count)
system.cpu0.MemDepUnit__3.conflictingLoads            0                       # Number of conflicting loads. (Count)
system.cpu0.MemDepUnit__3.conflictingStores            0                       # Number of conflicting stores. (Count)
system.cpu0.branchPred.lookups                8450133                       # Number of BP lookups (Count)
system.cpu0.branchPred.condPredicted          3672687                       # Number of conditional branches predicted (Count)
system.cpu0.branchPred.condIncorrect            20234                       # Number of conditional branches incorrect (Count)
system.cpu0.branchPred.BTBLookups             3702180                       # Number of BTB lookups (Count)
system.cpu0.branchPred.BTBUpdates               10507                       # Number of BTB updates (Count)
system.cpu0.branchPred.BTBHits                3695719                       # Number of BTB hits (Count)
system.cpu0.branchPred.BTBHitRatio           0.998255                       # BTB Hit Ratio (Ratio)
system.cpu0.branchPred.RASUsed                1725637                       # Number of times the RAS was used to get a target. (Count)
system.cpu0.branchPred.RASIncorrect                17                       # Number of incorrect RAS predictions. (Count)
system.cpu0.branchPred.indirectLookups        1300692                       # Number of indirect predictor lookups. (Count)
system.cpu0.branchPred.indirectHits           1285651                       # Number of indirect target hits. (Count)
system.cpu0.branchPred.indirectMisses           15041                       # Number of indirect misses. (Count)
system.cpu0.branchPred.indirectMispredicted         3071                       # Number of mispredicted indirect branches. (Count)
system.cpu0.commit.commitSquashedInsts        1223817                       # The number of squashed insts skipped by commit (Count)
system.cpu0.commit.commitNonSpecStalls           1619                       # The number of times commit has been forced to stall to communicate backwards (Count)
system.cpu0.commit.branchMispredicts            19247                       # The number of times a branch was mispredicted (Count)
system.cpu0.commit.numCommittedDist::samples     42718759                       # Number of insts commited each cycle (Count)
system.cpu0.commit.numCommittedDist::mean     2.100477                       # Number of insts commited each cycle (Count)
system.cpu0.commit.numCommittedDist::stdev     2.885914                       # Number of insts commited each cycle (Count)
system.cpu0.commit.numCommittedDist::underflows            0      0.00%      0.00% # Number of insts commited each cycle (Count)
system.cpu0.commit.numCommittedDist::0       21746078     50.91%     50.91% # Number of insts commited each cycle (Count)
system.cpu0.commit.numCommittedDist::1        4743275     11.10%     62.01% # Number of insts commited each cycle (Count)
system.cpu0.commit.numCommittedDist::2        2101697      4.92%     66.93% # Number of insts commited each cycle (Count)
system.cpu0.commit.numCommittedDist::3        4755211     11.13%     78.06% # Number of insts commited each cycle (Count)
system.cpu0.commit.numCommittedDist::4         494719      1.16%     79.22% # Number of insts commited each cycle (Count)
system.cpu0.commit.numCommittedDist::5        1347886      3.16%     82.37% # Number of insts commited each cycle (Count)
system.cpu0.commit.numCommittedDist::6         692787      1.62%     84.00% # Number of insts commited each cycle (Count)
system.cpu0.commit.numCommittedDist::7        1054412      2.47%     86.46% # Number of insts commited each cycle (Count)
system.cpu0.commit.numCommittedDist::8        5782694     13.54%    100.00% # Number of insts commited each cycle (Count)
system.cpu0.commit.numCommittedDist::overflows            0      0.00%    100.00% # Number of insts commited each cycle (Count)
system.cpu0.commit.numCommittedDist::min_value            0                       # Number of insts commited each cycle (Count)
system.cpu0.commit.numCommittedDist::max_value            8                       # Number of insts commited each cycle (Count)
system.cpu0.commit.numCommittedDist::total     42718759                       # Number of insts commited each cycle (Count)
system.cpu0.commit.instsCommitted            47842968                       # Number of instructions committed (Count)
system.cpu0.commit.opsCommitted              89729766                       # Number of ops (including micro ops) committed (Count)
system.cpu0.commit.memRefs                   23841883                       # Number of memory references committed (Count)
system.cpu0.commit.loads                     14655582                       # Number of loads committed (Count)
system.cpu0.commit.amos                             0                       # Number of atomic instructions committed (Count)
system.cpu0.commit.membars                        386                       # Number of memory barriers committed (Count)
system.cpu0.commit.branches                   8284918                       # Number of branches committed (Count)
system.cpu0.commit.vectorInstructions               0                       # Number of committed Vector instructions. (Count)
system.cpu0.commit.floating                    111517                       # Number of committed floating point instructions. (Count)
system.cpu0.commit.integer                   86868655                       # Number of committed integer instructions. (Count)
system.cpu0.commit.functionCalls              1718648                       # Number of function calls committed. (Count)
system.cpu0.commit.committedInstType_0::No_OpClass      2576751      2.87%      2.87% # Class of committed instruction (Count)
system.cpu0.commit.committedInstType_0::IntAlu     63202732     70.44%     73.31% # Class of committed instruction (Count)
system.cpu0.commit.committedInstType_0::IntMult           50      0.00%     73.31% # Class of committed instruction (Count)
system.cpu0.commit.committedInstType_0::IntDiv        40160      0.04%     73.35% # Class of committed instruction (Count)
system.cpu0.commit.committedInstType_0::FloatAdd         8173      0.01%     73.36% # Class of committed instruction (Count)
system.cpu0.commit.committedInstType_0::FloatCmp            0      0.00%     73.36% # Class of committed instruction (Count)
system.cpu0.commit.committedInstType_0::FloatCvt         1840      0.00%     73.36% # Class of committed instruction (Count)
system.cpu0.commit.committedInstType_0::FloatMult            0      0.00%     73.36% # Class of committed instruction (Count)
system.cpu0.commit.committedInstType_0::FloatMultAcc            0      0.00%     73.36% # Class of committed instruction (Count)
system.cpu0.commit.committedInstType_0::FloatDiv            0      0.00%     73.36% # Class of committed instruction (Count)
system.cpu0.commit.committedInstType_0::FloatMisc            0      0.00%     73.36% # Class of committed instruction (Count)
system.cpu0.commit.committedInstType_0::FloatSqrt            0      0.00%     73.36% # Class of committed instruction (Count)
system.cpu0.commit.committedInstType_0::SimdAdd         7798      0.01%     73.37% # Class of committed instruction (Count)
system.cpu0.commit.committedInstType_0::SimdAddAcc            0      0.00%     73.37% # Class of committed instruction (Count)
system.cpu0.commit.committedInstType_0::SimdAlu        15583      0.02%     73.39% # Class of committed instruction (Count)
system.cpu0.commit.committedInstType_0::SimdCmp           12      0.00%     73.39% # Class of committed instruction (Count)
system.cpu0.commit.committedInstType_0::SimdCvt        15798      0.02%     73.41% # Class of committed instruction (Count)
system.cpu0.commit.committedInstType_0::SimdMisc        15584      0.02%     73.43% # Class of committed instruction (Count)
system.cpu0.commit.committedInstType_0::SimdMult            0      0.00%     73.43% # Class of committed instruction (Count)
system.cpu0.commit.committedInstType_0::SimdMultAcc            0      0.00%     73.43% # Class of committed instruction (Count)
system.cpu0.commit.committedInstType_0::SimdShift         3383      0.00%     73.43% # Class of committed instruction (Count)
system.cpu0.commit.committedInstType_0::SimdShiftAcc            0      0.00%     73.43% # Class of committed instruction (Count)
system.cpu0.commit.committedInstType_0::SimdDiv            0      0.00%     73.43% # Class of committed instruction (Count)
system.cpu0.commit.committedInstType_0::SimdSqrt            0      0.00%     73.43% # Class of committed instruction (Count)
system.cpu0.commit.committedInstType_0::SimdFloatAdd            6      0.00%     73.43% # Class of committed instruction (Count)
system.cpu0.commit.committedInstType_0::SimdFloatAlu            0      0.00%     73.43% # Class of committed instruction (Count)
system.cpu0.commit.committedInstType_0::SimdFloatCmp            0      0.00%     73.43% # Class of committed instruction (Count)
system.cpu0.commit.committedInstType_0::SimdFloatCvt            7      0.00%     73.43% # Class of committed instruction (Count)
system.cpu0.commit.committedInstType_0::SimdFloatDiv            1      0.00%     73.43% # Class of committed instruction (Count)
system.cpu0.commit.committedInstType_0::SimdFloatMisc            0      0.00%     73.43% # Class of committed instruction (Count)
system.cpu0.commit.committedInstType_0::SimdFloatMult            5      0.00%     73.43% # Class of committed instruction (Count)
system.cpu0.commit.committedInstType_0::SimdFloatMultAcc            0      0.00%     73.43% # Class of committed instruction (Count)
system.cpu0.commit.committedInstType_0::SimdFloatSqrt            0      0.00%     73.43% # Class of committed instruction (Count)
system.cpu0.commit.committedInstType_0::SimdReduceAdd            0      0.00%     73.43% # Class of committed instruction (Count)
system.cpu0.commit.committedInstType_0::SimdReduceAlu            0      0.00%     73.43% # Class of committed instruction (Count)
system.cpu0.commit.committedInstType_0::SimdReduceCmp            0      0.00%     73.43% # Class of committed instruction (Count)
system.cpu0.commit.committedInstType_0::SimdFloatReduceAdd            0      0.00%     73.43% # Class of committed instruction (Count)
system.cpu0.commit.committedInstType_0::SimdFloatReduceCmp            0      0.00%     73.43% # Class of committed instruction (Count)
system.cpu0.commit.committedInstType_0::SimdAes            0      0.00%     73.43% # Class of committed instruction (Count)
system.cpu0.commit.committedInstType_0::SimdAesMix            0      0.00%     73.43% # Class of committed instruction (Count)
system.cpu0.commit.committedInstType_0::SimdSha1Hash            0      0.00%     73.43% # Class of committed instruction (Count)
system.cpu0.commit.committedInstType_0::SimdSha1Hash2            0      0.00%     73.43% # Class of committed instruction (Count)
system.cpu0.commit.committedInstType_0::SimdSha256Hash            0      0.00%     73.43% # Class of committed instruction (Count)
system.cpu0.commit.committedInstType_0::SimdSha256Hash2            0      0.00%     73.43% # Class of committed instruction (Count)
system.cpu0.commit.committedInstType_0::SimdShaSigma2            0      0.00%     73.43% # Class of committed instruction (Count)
system.cpu0.commit.committedInstType_0::SimdShaSigma3            0      0.00%     73.43% # Class of committed instruction (Count)
system.cpu0.commit.committedInstType_0::SimdPredAlu            0      0.00%     73.43% # Class of committed instruction (Count)
system.cpu0.commit.committedInstType_0::MemRead     14634615     16.31%     89.74% # Class of committed instruction (Count)
system.cpu0.commit.committedInstType_0::MemWrite      9169320     10.22%     99.96% # Class of committed instruction (Count)
system.cpu0.commit.committedInstType_0::FloatMemRead        20967      0.02%     99.98% # Class of committed instruction (Count)
system.cpu0.commit.committedInstType_0::FloatMemWrite        16981      0.02%    100.00% # Class of committed instruction (Count)
system.cpu0.commit.committedInstType_0::IprAccess            0      0.00%    100.00% # Class of committed instruction (Count)
system.cpu0.commit.committedInstType_0::InstPrefetch            0      0.00%    100.00% # Class of committed instruction (Count)
system.cpu0.commit.committedInstType_0::total     89729766                       # Class of committed instruction (Count)
system.cpu0.commit.commitEligibleSamples      5782694                       # number cycles where commit BW limit reached (Cycle)
system.cpu0.decode.idleCycles                 8672934                       # Number of cycles decode is idle (Cycle)
system.cpu0.decode.blockedCycles             18738581                       # Number of cycles decode is blocked (Cycle)
system.cpu0.decode.runCycles                 15153731                       # Number of cycles decode is running (Cycle)
system.cpu0.decode.unblockCycles               299857                       # Number of cycles decode is unblocking (Cycle)
system.cpu0.decode.squashCycles                 20698                       # Number of cycles decode is squashing (Cycle)
system.cpu0.decode.branchResolved             3683044                       # Number of times decode resolved a branch (Count)
system.cpu0.decode.branchMispred                 2734                       # Number of times decode detected a branch misprediction (Count)
system.cpu0.decode.decodedInsts              91199041                       # Number of instructions handled by decode (Count)
system.cpu0.decode.squashedInsts                13803                       # Number of squashed instructions handled by decode (Count)
system.cpu0.fetch.icacheStallCycles           8532449                       # Number of cycles fetch is stalled on an Icache miss (Cycle)
system.cpu0.fetch.insts                      48837851                       # Number of instructions fetch has processed (Count)
system.cpu0.fetch.branches                    8450133                       # Number of branches that fetch encountered (Count)
system.cpu0.fetch.predictedBranches           6707007                       # Number of branches that fetch has predicted taken (Count)
system.cpu0.fetch.cycles                     33896391                       # Number of cycles fetch has run and was not squashing or blocked (Cycle)
system.cpu0.fetch.squashCycles                  46766                       # Number of cycles fetch has spent squashing (Cycle)
system.cpu0.fetch.miscStallCycles                9746                       # Number of cycles fetch has spent waiting on interrupts, or bad addresses, or out of MSHRs (Cycle)
system.cpu0.fetch.pendingTrapStallCycles        11643                       # Number of stall cycles due to pending traps (Cycle)
system.cpu0.fetch.icacheWaitRetryStallCycles       412189                       # Number of stall cycles due to full MSHR (Cycle)
system.cpu0.fetch.cacheLines                  8174593                       # Number of cache lines fetched (Count)
system.cpu0.fetch.icacheSquashes                 6061                       # Number of outstanding Icache misses that were squashed (Count)
system.cpu0.fetch.nisnDist::samples          42885801                       # Number of instructions fetched each cycle (Total) (Count)
system.cpu0.fetch.nisnDist::mean             2.133989                       # Number of instructions fetched each cycle (Total) (Count)
system.cpu0.fetch.nisnDist::stdev            3.203936                       # Number of instructions fetched each cycle (Total) (Count)
system.cpu0.fetch.nisnDist::underflows              0      0.00%      0.00% # Number of instructions fetched each cycle (Total) (Count)
system.cpu0.fetch.nisnDist::0                27179244     63.38%     63.38% # Number of instructions fetched each cycle (Total) (Count)
system.cpu0.fetch.nisnDist::1                 1340248      3.13%     66.50% # Number of instructions fetched each cycle (Total) (Count)
system.cpu0.fetch.nisnDist::2                 1546297      3.61%     70.11% # Number of instructions fetched each cycle (Total) (Count)
system.cpu0.fetch.nisnDist::3                  716935      1.67%     71.78% # Number of instructions fetched each cycle (Total) (Count)
system.cpu0.fetch.nisnDist::4                 1404220      3.27%     75.05% # Number of instructions fetched each cycle (Total) (Count)
system.cpu0.fetch.nisnDist::5                 1102229      2.57%     77.62% # Number of instructions fetched each cycle (Total) (Count)
system.cpu0.fetch.nisnDist::6                  923580      2.15%     79.78% # Number of instructions fetched each cycle (Total) (Count)
system.cpu0.fetch.nisnDist::7                 1119700      2.61%     82.39% # Number of instructions fetched each cycle (Total) (Count)
system.cpu0.fetch.nisnDist::8                 7553348     17.61%    100.00% # Number of instructions fetched each cycle (Total) (Count)
system.cpu0.fetch.nisnDist::overflows               0      0.00%    100.00% # Number of instructions fetched each cycle (Total) (Count)
system.cpu0.fetch.nisnDist::min_value               0                       # Number of instructions fetched each cycle (Total) (Count)
system.cpu0.fetch.nisnDist::max_value               8                       # Number of instructions fetched each cycle (Total) (Count)
system.cpu0.fetch.nisnDist::total            42885801                       # Number of instructions fetched each cycle (Total) (Count)
system.cpu0.fetch.branchRate                 0.187516                       # Number of branch fetches per cycle (Ratio)
system.cpu0.fetch.rate                       1.083755                       # Number of inst fetches per cycle ((Count/Cycle))
system.cpu0.iew.idleCycles                          0                       # Number of cycles IEW is idle (Cycle)
system.cpu0.iew.squashCycles                    20698                       # Number of cycles IEW is squashing (Cycle)
system.cpu0.iew.blockCycles                   6567959                       # Number of cycles IEW is blocking (Cycle)
system.cpu0.iew.unblockCycles                  141899                       # Number of cycles IEW is unblocking (Cycle)
system.cpu0.iew.dispatchedInsts              90969416                       # Number of instructions dispatched to IQ (Count)
system.cpu0.iew.dispSquashedInsts                1150                       # Number of squashed instructions skipped by dispatch (Count)
system.cpu0.iew.dispLoadInsts                14826174                       # Number of dispatched load instructions (Count)
system.cpu0.iew.dispStoreInsts                9257998                       # Number of dispatched store instructions (Count)
system.cpu0.iew.dispNonSpecInsts                 1289                       # Number of dispatched non-speculative instructions (Count)
system.cpu0.iew.iqFullEvents                    12273                       # Number of times the IQ has become full, causing a stall (Count)
system.cpu0.iew.lsqFullEvents                  122086                       # Number of times the LSQ has become full, causing a stall (Count)
system.cpu0.iew.memOrderViolationEvents           766                       # Number of memory order violations (Count)
system.cpu0.iew.predictedTakenIncorrect          7341                       # Number of branches that were predicted taken incorrectly (Count)
system.cpu0.iew.predictedNotTakenIncorrect        15354                       # Number of branches that were predicted not taken incorrectly (Count)
system.cpu0.iew.branchMispredicts               22695                       # Number of branch mispredicts detected at execute (Count)
system.cpu0.iew.instsToCommit                90451446                       # Cumulative count of insts sent to commit (Count)
system.cpu0.iew.writebackCount               90440328                       # Cumulative count of insts written-back (Count)
system.cpu0.iew.producerInst                 60412335                       # Number of instructions producing a value (Count)
system.cpu0.iew.consumerInst                100483711                       # Number of instructions consuming a value (Count)
system.cpu0.iew.wbRate                       2.006951                       # Insts written-back per cycle ((Count/Cycle))
system.cpu0.iew.wbFanout                     0.601215                       # Average fanout of values written-back ((Count/Count))
system.cpu0.interrupts.clk_domain.clock          8000                       # Clock period in ticks (Tick)
system.cpu0.lsq0.forwLoads                    4329090                       # Number of loads that had data forwarded from stores (Count)
system.cpu0.lsq0.squashedLoads                 170592                       # Number of loads squashed (Count)
system.cpu0.lsq0.ignoredResponses                  85                       # Number of memory responses ignored because the instruction is squashed (Count)
system.cpu0.lsq0.memOrderViolation                766                       # Number of memory ordering violations (Count)
system.cpu0.lsq0.squashedStores                 71697                       # Number of stores squashed (Count)
system.cpu0.lsq0.rescheduledLoads                  19                       # Number of loads that were rescheduled (Count)
system.cpu0.lsq0.blockedByCache                  3037                       # Number of times an access to memory failed due to the cache being blocked (Count)
system.cpu0.lsq0.loadToUse::samples          14655582                       # Distribution of cycle latency between the first time a load is issued and its completion (Unspecified)
system.cpu0.lsq0.loadToUse::mean             5.326792                       # Distribution of cycle latency between the first time a load is issued and its completion (Unspecified)
system.cpu0.lsq0.loadToUse::stdev           46.289164                       # Distribution of cycle latency between the first time a load is issued and its completion (Unspecified)
system.cpu0.lsq0.loadToUse::0-9              14600874     99.63%     99.63% # Distribution of cycle latency between the first time a load is issued and its completion (Unspecified)
system.cpu0.lsq0.loadToUse::10-19                  46      0.00%     99.63% # Distribution of cycle latency between the first time a load is issued and its completion (Unspecified)
system.cpu0.lsq0.loadToUse::20-29                  48      0.00%     99.63% # Distribution of cycle latency between the first time a load is issued and its completion (Unspecified)
system.cpu0.lsq0.loadToUse::30-39                  54      0.00%     99.63% # Distribution of cycle latency between the first time a load is issued and its completion (Unspecified)
system.cpu0.lsq0.loadToUse::40-49                  53      0.00%     99.63% # Distribution of cycle latency between the first time a load is issued and its completion (Unspecified)
system.cpu0.lsq0.loadToUse::50-59                  98      0.00%     99.63% # Distribution of cycle latency between the first time a load is issued and its completion (Unspecified)
system.cpu0.lsq0.loadToUse::60-69                  54      0.00%     99.63% # Distribution of cycle latency between the first time a load is issued and its completion (Unspecified)
system.cpu0.lsq0.loadToUse::70-79                  31      0.00%     99.63% # Distribution of cycle latency between the first time a load is issued and its completion (Unspecified)
system.cpu0.lsq0.loadToUse::80-89                  35      0.00%     99.63% # Distribution of cycle latency between the first time a load is issued and its completion (Unspecified)
system.cpu0.lsq0.loadToUse::90-99                  31      0.00%     99.63% # Distribution of cycle latency between the first time a load is issued and its completion (Unspecified)
system.cpu0.lsq0.loadToUse::100-109                65      0.00%     99.63% # Distribution of cycle latency between the first time a load is issued and its completion (Unspecified)
system.cpu0.lsq0.loadToUse::110-119                56      0.00%     99.63% # Distribution of cycle latency between the first time a load is issued and its completion (Unspecified)
system.cpu0.lsq0.loadToUse::120-129                34      0.00%     99.63% # Distribution of cycle latency between the first time a load is issued and its completion (Unspecified)
system.cpu0.lsq0.loadToUse::130-139                35      0.00%     99.63% # Distribution of cycle latency between the first time a load is issued and its completion (Unspecified)
system.cpu0.lsq0.loadToUse::140-149                50      0.00%     99.63% # Distribution of cycle latency between the first time a load is issued and its completion (Unspecified)
system.cpu0.lsq0.loadToUse::150-159                45      0.00%     99.63% # Distribution of cycle latency between the first time a load is issued and its completion (Unspecified)
system.cpu0.lsq0.loadToUse::160-169                39      0.00%     99.63% # Distribution of cycle latency between the first time a load is issued and its completion (Unspecified)
system.cpu0.lsq0.loadToUse::170-179               105      0.00%     99.63% # Distribution of cycle latency between the first time a load is issued and its completion (Unspecified)
system.cpu0.lsq0.loadToUse::180-189               699      0.00%     99.64% # Distribution of cycle latency between the first time a load is issued and its completion (Unspecified)
system.cpu0.lsq0.loadToUse::190-199                30      0.00%     99.64% # Distribution of cycle latency between the first time a load is issued and its completion (Unspecified)
system.cpu0.lsq0.loadToUse::200-209                18      0.00%     99.64% # Distribution of cycle latency between the first time a load is issued and its completion (Unspecified)
system.cpu0.lsq0.loadToUse::210-219                52      0.00%     99.64% # Distribution of cycle latency between the first time a load is issued and its completion (Unspecified)
system.cpu0.lsq0.loadToUse::220-229                82      0.00%     99.64% # Distribution of cycle latency between the first time a load is issued and its completion (Unspecified)
system.cpu0.lsq0.loadToUse::230-239               180      0.00%     99.64% # Distribution of cycle latency between the first time a load is issued and its completion (Unspecified)
system.cpu0.lsq0.loadToUse::240-249              1089      0.01%     99.65% # Distribution of cycle latency between the first time a load is issued and its completion (Unspecified)
system.cpu0.lsq0.loadToUse::250-259                71      0.00%     99.65% # Distribution of cycle latency between the first time a load is issued and its completion (Unspecified)
system.cpu0.lsq0.loadToUse::260-269                66      0.00%     99.65% # Distribution of cycle latency between the first time a load is issued and its completion (Unspecified)
system.cpu0.lsq0.loadToUse::270-279               106      0.00%     99.65% # Distribution of cycle latency between the first time a load is issued and its completion (Unspecified)
system.cpu0.lsq0.loadToUse::280-289                80      0.00%     99.65% # Distribution of cycle latency between the first time a load is issued and its completion (Unspecified)
system.cpu0.lsq0.loadToUse::290-299               269      0.00%     99.65% # Distribution of cycle latency between the first time a load is issued and its completion (Unspecified)
system.cpu0.lsq0.loadToUse::overflows           51087      0.35%    100.00% # Distribution of cycle latency between the first time a load is issued and its completion (Unspecified)
system.cpu0.lsq0.loadToUse::min_value               2                       # Distribution of cycle latency between the first time a load is issued and its completion (Unspecified)
system.cpu0.lsq0.loadToUse::max_value            2705                       # Distribution of cycle latency between the first time a load is issued and its completion (Unspecified)
system.cpu0.lsq0.loadToUse::total            14655582                       # Distribution of cycle latency between the first time a load is issued and its completion (Unspecified)
system.cpu0.mmu.dtb.rdAccesses               14783709                       # TLB accesses on read requests (Count)
system.cpu0.mmu.dtb.wrAccesses                9236984                       # TLB accesses on write requests (Count)
system.cpu0.mmu.dtb.rdMisses                     4206                       # TLB misses on read requests (Count)
system.cpu0.mmu.dtb.wrMisses                      863                       # TLB misses on write requests (Count)
system.cpu0.mmu.dtb.walker.power_state.pwrStateResidencyTicks::UNDEFINED  22531773500                       # Cumulative time (in ticks) in various power states (Tick)
system.cpu0.mmu.itb.rdAccesses                      0                       # TLB accesses on read requests (Count)
system.cpu0.mmu.itb.wrAccesses                8176376                       # TLB accesses on write requests (Count)
system.cpu0.mmu.itb.rdMisses                        0                       # TLB misses on read requests (Count)
system.cpu0.mmu.itb.wrMisses                     2907                       # TLB misses on write requests (Count)
system.cpu0.mmu.itb.walker.power_state.pwrStateResidencyTicks::UNDEFINED  22531773500                       # Cumulative time (in ticks) in various power states (Tick)
system.cpu0.power_state.pwrStateResidencyTicks::ON  22531773500                       # Cumulative time (in ticks) in various power states (Tick)
system.cpu0.rename.squashCycles                 20698                       # Number of cycles rename is squashing (Cycle)
system.cpu0.rename.idleCycles                 8786484                       # Number of cycles rename is idle (Cycle)
system.cpu0.rename.blockCycles                7436072                       # Number of cycles rename is blocking (Cycle)
system.cpu0.rename.serializeStallCycles         23654                       # count of cycles rename stalled for serializing inst (Cycle)
system.cpu0.rename.runCycles                 15329466                       # Number of cycles rename is running (Cycle)
system.cpu0.rename.unblockCycles             11289427                       # Number of cycles rename is unblocking (Cycle)
system.cpu0.rename.renamedInsts              91106119                       # Number of instructions processed by rename (Count)
system.cpu0.rename.ROBFullEvents                27032                       # Number of times rename has blocked due to ROB full (Count)
system.cpu0.rename.IQFullEvents                309694                       # Number of times rename has blocked due to IQ full (Count)
system.cpu0.rename.LQFullEvents                300489                       # Number of times rename has blocked due to LQ full (Count)
system.cpu0.rename.SQFullEvents              10601029                       # Number of times rename has blocked due to SQ full (Count)
system.cpu0.rename.fullRegistersEvents           2530                       # Number of times there has been no free registers (Count)
system.cpu0.rename.renamedOperands          118799779                       # Number of destination operands rename has renamed (Count)
system.cpu0.rename.lookups                  265580996                       # Number of register rename lookups that rename has made (Count)
system.cpu0.rename.intLookups               126842536                       # Number of integer rename lookups (Count)
system.cpu0.rename.fpLookups                   272442                       # Number of floating rename lookups (Count)
system.cpu0.rename.committedMaps            116227423                       # Number of HB maps that are committed (Count)
system.cpu0.rename.undoneMaps                 2572356                       # Number of HB maps that are undone due to squashing (Count)
system.cpu0.rename.serializing                   1118                       # count of serializing insts renamed (Count)
system.cpu0.rename.tempSerializing               1104                       # count of temporary serializing insts renamed (Count)
system.cpu0.rename.skidInsts                  1388536                       # count of insts added to the skid buffer (Count)
system.cpu0.rob.reads                       127878936                       # The number of ROB reads (Count)
system.cpu0.rob.writes                      182074539                       # The number of ROB writes (Count)
system.cpu0.thread_0.numInsts                47842968                       # Number of Instructions committed (Count)
system.cpu0.thread_0.numOps                  89729766                       # Number of Ops committed (Count)
system.cpu0.thread_0.numMemRefs                     0                       # Number of Memory References (Count)
system.cpu0.workload.numSyscalls                  187                       # Number of system calls (Count)
system.cpu1.numCycles                        45063548                       # Number of cpu cycles simulated (Cycle)
system.cpu1.numWorkItemsStarted                     0                       # Number of work items this cpu started (Count)
system.cpu1.numWorkItemsCompleted                   0                       # Number of work items this cpu completed (Count)
system.cpu1.instsAdded                       92858704                       # Number of instructions added to the IQ (excludes non-spec) (Count)
system.cpu1.nonSpecInstsAdded                    1762                       # Number of non-speculative instructions added to the IQ (Count)
system.cpu1.instsIssued                      92401434                       # Number of instructions issued (Count)
system.cpu1.squashedInstsIssued                  2742                       # Number of squashed instructions issued (Count)
system.cpu1.squashedInstsExamined             1239136                       # Number of squashed instructions iterated over during squash; mainly for profiling (Count)
system.cpu1.squashedOperandsExamined          2635433                       # Number of squashed operands that are examined and possibly removed from graph (Count)
system.cpu1.squashedNonSpecRemoved                143                       # Number of squashed non-spec instructions that were removed (Count)
system.cpu1.numIssuedDist::samples           42822871                       # Number of insts issued each cycle (Count)
system.cpu1.numIssuedDist::mean              2.157759                       # Number of insts issued each cycle (Count)
system.cpu1.numIssuedDist::stdev             2.347675                       # Number of insts issued each cycle (Count)
system.cpu1.numIssuedDist::underflows               0      0.00%      0.00% # Number of insts issued each cycle (Count)
system.cpu1.numIssuedDist::0                 18834817     43.98%     43.98% # Number of insts issued each cycle (Count)
system.cpu1.numIssuedDist::1                  2015618      4.71%     48.69% # Number of insts issued each cycle (Count)
system.cpu1.numIssuedDist::2                  4107427      9.59%     58.28% # Number of insts issued each cycle (Count)
system.cpu1.numIssuedDist::3                  5189216     12.12%     70.40% # Number of insts issued each cycle (Count)
system.cpu1.numIssuedDist::4                  4740299     11.07%     81.47% # Number of insts issued each cycle (Count)
system.cpu1.numIssuedDist::5                  3050449      7.12%     88.59% # Number of insts issued each cycle (Count)
system.cpu1.numIssuedDist::6                  2930913      6.84%     95.44% # Number of insts issued each cycle (Count)
system.cpu1.numIssuedDist::7                   828661      1.94%     97.37% # Number of insts issued each cycle (Count)
system.cpu1.numIssuedDist::8                  1125471      2.63%    100.00% # Number of insts issued each cycle (Count)
system.cpu1.numIssuedDist::overflows                0      0.00%    100.00% # Number of insts issued each cycle (Count)
system.cpu1.numIssuedDist::min_value                0                       # Number of insts issued each cycle (Count)
system.cpu1.numIssuedDist::max_value                8                       # Number of insts issued each cycle (Count)
system.cpu1.numIssuedDist::total             42822871                       # Number of insts issued each cycle (Count)
system.cpu1.statFuBusy::No_OpClass                  0      0.00%      0.00% # attempts to use FU when none available (Count)
system.cpu1.statFuBusy::IntAlu                 496923     66.84%     66.84% # attempts to use FU when none available (Count)
system.cpu1.statFuBusy::IntMult                     0      0.00%     66.84% # attempts to use FU when none available (Count)
system.cpu1.statFuBusy::IntDiv                      0      0.00%     66.84% # attempts to use FU when none available (Count)
system.cpu1.statFuBusy::FloatAdd                    0      0.00%     66.84% # attempts to use FU when none available (Count)
system.cpu1.statFuBusy::FloatCmp                    0      0.00%     66.84% # attempts to use FU when none available (Count)
system.cpu1.statFuBusy::FloatCvt                    0      0.00%     66.84% # attempts to use FU when none available (Count)
system.cpu1.statFuBusy::FloatMult                   0      0.00%     66.84% # attempts to use FU when none available (Count)
system.cpu1.statFuBusy::FloatMultAcc                0      0.00%     66.84% # attempts to use FU when none available (Count)
system.cpu1.statFuBusy::FloatDiv                    0      0.00%     66.84% # attempts to use FU when none available (Count)
system.cpu1.statFuBusy::FloatMisc                   0      0.00%     66.84% # attempts to use FU when none available (Count)
system.cpu1.statFuBusy::FloatSqrt                   0      0.00%     66.84% # attempts to use FU when none available (Count)
system.cpu1.statFuBusy::SimdAdd                    12      0.00%     66.85% # attempts to use FU when none available (Count)
system.cpu1.statFuBusy::SimdAddAcc                  0      0.00%     66.85% # attempts to use FU when none available (Count)
system.cpu1.statFuBusy::SimdAlu                   225      0.03%     66.88% # attempts to use FU when none available (Count)
system.cpu1.statFuBusy::SimdCmp                     0      0.00%     66.88% # attempts to use FU when none available (Count)
system.cpu1.statFuBusy::SimdCvt                   663      0.09%     66.96% # attempts to use FU when none available (Count)
system.cpu1.statFuBusy::SimdMisc                   21      0.00%     66.97% # attempts to use FU when none available (Count)
system.cpu1.statFuBusy::SimdMult                    0      0.00%     66.97% # attempts to use FU when none available (Count)
system.cpu1.statFuBusy::SimdMultAcc                 0      0.00%     66.97% # attempts to use FU when none available (Count)
system.cpu1.statFuBusy::SimdShift                 561      0.08%     67.04% # attempts to use FU when none available (Count)
system.cpu1.statFuBusy::SimdShiftAcc                0      0.00%     67.04% # attempts to use FU when none available (Count)
system.cpu1.statFuBusy::SimdDiv                     0      0.00%     67.04% # attempts to use FU when none available (Count)
system.cpu1.statFuBusy::SimdSqrt                    0      0.00%     67.04% # attempts to use FU when none available (Count)
system.cpu1.statFuBusy::SimdFloatAdd                0      0.00%     67.04% # attempts to use FU when none available (Count)
system.cpu1.statFuBusy::SimdFloatAlu                0      0.00%     67.04% # attempts to use FU when none available (Count)
system.cpu1.statFuBusy::SimdFloatCmp                0      0.00%     67.04% # attempts to use FU when none available (Count)
system.cpu1.statFuBusy::SimdFloatCvt                0      0.00%     67.04% # attempts to use FU when none available (Count)
system.cpu1.statFuBusy::SimdFloatDiv                0      0.00%     67.04% # attempts to use FU when none available (Count)
system.cpu1.statFuBusy::SimdFloatMisc               0      0.00%     67.04% # attempts to use FU when none available (Count)
system.cpu1.statFuBusy::SimdFloatMult               0      0.00%     67.04% # attempts to use FU when none available (Count)
system.cpu1.statFuBusy::SimdFloatMultAcc            0      0.00%     67.04% # attempts to use FU when none available (Count)
system.cpu1.statFuBusy::SimdFloatSqrt               0      0.00%     67.04% # attempts to use FU when none available (Count)
system.cpu1.statFuBusy::SimdReduceAdd               0      0.00%     67.04% # attempts to use FU when none available (Count)
system.cpu1.statFuBusy::SimdReduceAlu               0      0.00%     67.04% # attempts to use FU when none available (Count)
system.cpu1.statFuBusy::SimdReduceCmp               0      0.00%     67.04% # attempts to use FU when none available (Count)
system.cpu1.statFuBusy::SimdFloatReduceAdd            0      0.00%     67.04% # attempts to use FU when none available (Count)
system.cpu1.statFuBusy::SimdFloatReduceCmp            0      0.00%     67.04% # attempts to use FU when none available (Count)
system.cpu1.statFuBusy::SimdAes                     0      0.00%     67.04% # attempts to use FU when none available (Count)
system.cpu1.statFuBusy::SimdAesMix                  0      0.00%     67.04% # attempts to use FU when none available (Count)
system.cpu1.statFuBusy::SimdSha1Hash                0      0.00%     67.04% # attempts to use FU when none available (Count)
system.cpu1.statFuBusy::SimdSha1Hash2               0      0.00%     67.04% # attempts to use FU when none available (Count)
system.cpu1.statFuBusy::SimdSha256Hash              0      0.00%     67.04% # attempts to use FU when none available (Count)
system.cpu1.statFuBusy::SimdSha256Hash2             0      0.00%     67.04% # attempts to use FU when none available (Count)
system.cpu1.statFuBusy::SimdShaSigma2               0      0.00%     67.04% # attempts to use FU when none available (Count)
system.cpu1.statFuBusy::SimdShaSigma3               0      0.00%     67.04% # attempts to use FU when none available (Count)
system.cpu1.statFuBusy::SimdPredAlu                 0      0.00%     67.04% # attempts to use FU when none available (Count)
system.cpu1.statFuBusy::MemRead                 14813      1.99%     69.04% # attempts to use FU when none available (Count)
system.cpu1.statFuBusy::MemWrite               228740     30.77%     99.80% # attempts to use FU when none available (Count)
system.cpu1.statFuBusy::FloatMemRead             1065      0.14%     99.95% # attempts to use FU when none available (Count)
system.cpu1.statFuBusy::FloatMemWrite             385      0.05%    100.00% # attempts to use FU when none available (Count)
system.cpu1.statFuBusy::IprAccess                   0      0.00%    100.00% # attempts to use FU when none available (Count)
system.cpu1.statFuBusy::InstPrefetch                0      0.00%    100.00% # attempts to use FU when none available (Count)
system.cpu1.statIssuedInstType_0::No_OpClass      2657525      2.88%      2.88% # Number of instructions issued per FU type, per thread (Count)
system.cpu1.statIssuedInstType_0::IntAlu     65072304     70.42%     73.30% # Number of instructions issued per FU type, per thread (Count)
system.cpu1.statIssuedInstType_0::IntMult           65      0.00%     73.30% # Number of instructions issued per FU type, per thread (Count)
system.cpu1.statIssuedInstType_0::IntDiv        42936      0.05%     73.35% # Number of instructions issued per FU type, per thread (Count)
system.cpu1.statIssuedInstType_0::FloatAdd        10239      0.01%     73.36% # Number of instructions issued per FU type, per thread (Count)
system.cpu1.statIssuedInstType_0::FloatCmp            0      0.00%     73.36% # Number of instructions issued per FU type, per thread (Count)
system.cpu1.statIssuedInstType_0::FloatCvt         1868      0.00%     73.36% # Number of instructions issued per FU type, per thread (Count)
system.cpu1.statIssuedInstType_0::FloatMult            0      0.00%     73.36% # Number of instructions issued per FU type, per thread (Count)
system.cpu1.statIssuedInstType_0::FloatMultAcc            0      0.00%     73.36% # Number of instructions issued per FU type, per thread (Count)
system.cpu1.statIssuedInstType_0::FloatDiv            0      0.00%     73.36% # Number of instructions issued per FU type, per thread (Count)
system.cpu1.statIssuedInstType_0::FloatMisc            0      0.00%     73.36% # Number of instructions issued per FU type, per thread (Count)
system.cpu1.statIssuedInstType_0::FloatSqrt            0      0.00%     73.36% # Number of instructions issued per FU type, per thread (Count)
system.cpu1.statIssuedInstType_0::SimdAdd         9504      0.01%     73.37% # Number of instructions issued per FU type, per thread (Count)
system.cpu1.statIssuedInstType_0::SimdAddAcc            0      0.00%     73.37% # Number of instructions issued per FU type, per thread (Count)
system.cpu1.statIssuedInstType_0::SimdAlu        21467      0.02%     73.39% # Number of instructions issued per FU type, per thread (Count)
system.cpu1.statIssuedInstType_0::SimdCmp           12      0.00%     73.39% # Number of instructions issued per FU type, per thread (Count)
system.cpu1.statIssuedInstType_0::SimdCvt        20936      0.02%     73.42% # Number of instructions issued per FU type, per thread (Count)
system.cpu1.statIssuedInstType_0::SimdMisc        17778      0.02%     73.43% # Number of instructions issued per FU type, per thread (Count)
system.cpu1.statIssuedInstType_0::SimdMult            0      0.00%     73.43% # Number of instructions issued per FU type, per thread (Count)
system.cpu1.statIssuedInstType_0::SimdMultAcc            0      0.00%     73.43% # Number of instructions issued per FU type, per thread (Count)
system.cpu1.statIssuedInstType_0::SimdShift         6900      0.01%     73.44% # Number of instructions issued per FU type, per thread (Count)
system.cpu1.statIssuedInstType_0::SimdShiftAcc            0      0.00%     73.44% # Number of instructions issued per FU type, per thread (Count)
system.cpu1.statIssuedInstType_0::SimdDiv            0      0.00%     73.44% # Number of instructions issued per FU type, per thread (Count)
system.cpu1.statIssuedInstType_0::SimdSqrt            0      0.00%     73.44% # Number of instructions issued per FU type, per thread (Count)
system.cpu1.statIssuedInstType_0::SimdFloatAdd            9      0.00%     73.44% # Number of instructions issued per FU type, per thread (Count)
system.cpu1.statIssuedInstType_0::SimdFloatAlu            0      0.00%     73.44% # Number of instructions issued per FU type, per thread (Count)
system.cpu1.statIssuedInstType_0::SimdFloatCmp            0      0.00%     73.44% # Number of instructions issued per FU type, per thread (Count)
system.cpu1.statIssuedInstType_0::SimdFloatCvt           13      0.00%     73.44% # Number of instructions issued per FU type, per thread (Count)
system.cpu1.statIssuedInstType_0::SimdFloatDiv            1      0.00%     73.44% # Number of instructions issued per FU type, per thread (Count)
system.cpu1.statIssuedInstType_0::SimdFloatMisc            0      0.00%     73.44% # Number of instructions issued per FU type, per thread (Count)
system.cpu1.statIssuedInstType_0::SimdFloatMult            8      0.00%     73.44% # Number of instructions issued per FU type, per thread (Count)
system.cpu1.statIssuedInstType_0::SimdFloatMultAcc            0      0.00%     73.44% # Number of instructions issued per FU type, per thread (Count)
system.cpu1.statIssuedInstType_0::SimdFloatSqrt            0      0.00%     73.44% # Number of instructions issued per FU type, per thread (Count)
system.cpu1.statIssuedInstType_0::SimdReduceAdd            0      0.00%     73.44% # Number of instructions issued per FU type, per thread (Count)
system.cpu1.statIssuedInstType_0::SimdReduceAlu            0      0.00%     73.44% # Number of instructions issued per FU type, per thread (Count)
system.cpu1.statIssuedInstType_0::SimdReduceCmp            0      0.00%     73.44% # Number of instructions issued per FU type, per thread (Count)
system.cpu1.statIssuedInstType_0::SimdFloatReduceAdd            0      0.00%     73.44% # Number of instructions issued per FU type, per thread (Count)
system.cpu1.statIssuedInstType_0::SimdFloatReduceCmp            0      0.00%     73.44% # Number of instructions issued per FU type, per thread (Count)
system.cpu1.statIssuedInstType_0::SimdAes            0      0.00%     73.44% # Number of instructions issued per FU type, per thread (Count)
system.cpu1.statIssuedInstType_0::SimdAesMix            0      0.00%     73.44% # Number of instructions issued per FU type, per thread (Count)
system.cpu1.statIssuedInstType_0::SimdSha1Hash            0      0.00%     73.44% # Number of instructions issued per FU type, per thread (Count)
system.cpu1.statIssuedInstType_0::SimdSha1Hash2            0      0.00%     73.44% # Number of instructions issued per FU type, per thread (Count)
system.cpu1.statIssuedInstType_0::SimdSha256Hash            0      0.00%     73.44% # Number of instructions issued per FU type, per thread (Count)
system.cpu1.statIssuedInstType_0::SimdSha256Hash2            0      0.00%     73.44% # Number of instructions issued per FU type, per thread (Count)
system.cpu1.statIssuedInstType_0::SimdShaSigma2            0      0.00%     73.44% # Number of instructions issued per FU type, per thread (Count)
system.cpu1.statIssuedInstType_0::SimdShaSigma3            0      0.00%     73.44% # Number of instructions issued per FU type, per thread (Count)
system.cpu1.statIssuedInstType_0::SimdPredAlu            0      0.00%     73.44% # Number of instructions issued per FU type, per thread (Count)
system.cpu1.statIssuedInstType_0::MemRead     15068908     16.31%     89.75% # Number of instructions issued per FU type, per thread (Count)
system.cpu1.statIssuedInstType_0::MemWrite      9419697     10.19%     99.94% # Number of instructions issued per FU type, per thread (Count)
system.cpu1.statIssuedInstType_0::FloatMemRead        32777      0.04%     99.98% # Number of instructions issued per FU type, per thread (Count)
system.cpu1.statIssuedInstType_0::FloatMemWrite        18487      0.02%    100.00% # Number of instructions issued per FU type, per thread (Count)
system.cpu1.statIssuedInstType_0::IprAccess            0      0.00%    100.00% # Number of instructions issued per FU type, per thread (Count)
system.cpu1.statIssuedInstType_0::InstPrefetch            0      0.00%    100.00% # Number of instructions issued per FU type, per thread (Count)
system.cpu1.statIssuedInstType_0::total      92401434                       # Number of instructions issued per FU type, per thread (Count)
system.cpu1.issueRate                        2.050470                       # Inst issue rate ((Count/Cycle))
system.cpu1.fuBusy                             743408                       # FU busy when requested (Count)
system.cpu1.fuBusyRate                       0.008045                       # FU busy rate (busy events/executed inst) ((Count/Count))
system.cpu1.intInstQueueReads               228075500                       # Number of integer instruction queue reads (Count)
system.cpu1.intInstQueueWrites               93869617                       # Number of integer instruction queue writes (Count)
system.cpu1.intInstQueueWakeupAccesses       92192322                       # Number of integer instruction queue wakeup accesses (Count)
system.cpu1.fpInstQueueReads                   296385                       # Number of floating instruction queue reads (Count)
system.cpu1.fpInstQueueWrites                  230728                       # Number of floating instruction queue writes (Count)
system.cpu1.fpInstQueueWakeupAccesses          139675                       # Number of floating instruction queue wakeup accesses (Count)
system.cpu1.vecInstQueueReads                       0                       # Number of vector instruction queue reads (Count)
system.cpu1.vecInstQueueWrites                      0                       # Number of vector instruction queue writes (Count)
system.cpu1.vecInstQueueWakeupAccesses              0                       # Number of vector instruction queue wakeup accesses (Count)
system.cpu1.intAluAccesses                   90337948                       # Number of integer alu accesses (Count)
system.cpu1.fpAluAccesses                      149369                       # Number of floating point alu accesses (Count)
system.cpu1.vecAluAccesses                          0                       # Number of vector alu accesses (Count)
system.cpu1.numInsts                         92365112                       # Number of executed instructions (Count)
system.cpu1.numLoadInsts                     15093628                       # Number of load instructions executed (Count)
system.cpu1.numSquashedInsts                    36318                       # Number of squashed instructions skipped in execute (Count)
system.cpu1.numSwp                                  0                       # Number of swp insts executed (Count)
system.cpu1.numNop                                  0                       # Number of nop insts executed (Count)
system.cpu1.numRefs                          24528683                       # Number of memory reference insts executed (Count)
system.cpu1.numBranches                       8496530                       # Number of branches executed (Count)
[...]
system.ruby.network.ext_out_link_utilization      9442836                       (Unspecified)
system.ruby.network.flit_network_latency |269170538500                       |442616123000                       | 39497417500                       (Unspecified)
system.ruby.network.flit_queueing_latency |  4148439500                       |  3794980000                       |   282171000                       (Unspecified)
system.ruby.network.flits_injected       |     2761566     29.25%     29.25% |     6116945     64.78%     94.02% |      564342      5.98%    100.00% (Unspecified)
system.ruby.network.flits_injected::total      9442853                       (Unspecified)
system.ruby.network.flits_received       |     2761554     29.24%     29.24% |     6116938     64.78%     94.02% |      564342      5.98%    100.00% (Unspecified)
system.ruby.network.flits_received::total      9442834                       (Unspecified)
system.ruby.network.int_link_utilization     24220310                       (Unspecified)
system.ruby.network.packet_network_latency |146619099000                       |143488864000                       | 39497417500                       (Unspecified)
system.ruby.network.packet_queueing_latency |  2830166500                       |   994416000                       |   282171000                       (Unspecified)
system.ruby.network.packets_injected     |     1668354     42.77%     42.77% |     1668345     42.77%     85.53% |      564342     14.47%    100.00% (Unspecified)
system.ruby.network.packets_injected::total      3901041                       (Unspecified)
system.ruby.network.packets_received     |     1668349     42.77%     42.77% |     1668342     42.77%     85.53% |      564342     14.47%    100.00% (Unspecified)
system.ruby.network.packets_received::total      3901033                       (Unspecified)
system.ruby.network.routers00.Var_1                 1                       (Unspecified)
system.ruby.network.routers00.Var_2              3287                       (Unspecified)
system.ruby.network.routers00.Var_3              9654                       (Unspecified)
system.ruby.network.routers00.all_counts       109424                       (Unspecified)
system.ruby.network.routers00.buffer_reads      1489792                       (Unspecified)
system.ruby.network.routers00.buffer_writes      1489792                       (Unspecified)
system.ruby.network.routers00.crossbar_activity      1489792                       (Unspecified)
system.ruby.network.routers00.detour_counts         4806                       (Unspecified)
system.ruby.network.routers00.regular_var            0                       (Unspecified)
system.ruby.network.routers00.risk_counts         9675                       (Unspecified)
system.ruby.network.routers00.sw_input_arbiter_activity      1496581                       (Unspecified)
system.ruby.network.routers00.sw_output_arbiter_activity      1489792                       (Unspecified)
system.ruby.network.routers01.Var_1                 5                       (Unspecified)
system.ruby.network.routers01.Var_2              3320                       (Unspecified)
system.ruby.network.routers01.Var_3             13485                       (Unspecified)
system.ruby.network.routers01.all_counts       110351                       (Unspecified)
system.ruby.network.routers01.buffer_reads      2094799                       (Unspecified)
system.ruby.network.routers01.buffer_writes      2094799                       (Unspecified)
system.ruby.network.routers01.crossbar_activity      2094799                       (Unspecified)
system.ruby.network.routers01.detour_counts         6671                       (Unspecified)
system.ruby.network.routers01.regular_var            0                       (Unspecified)
system.ruby.network.routers01.risk_counts        13511                       (Unspecified)
system.ruby.network.routers01.sw_input_arbiter_activity      2110672                       (Unspecified)
system.ruby.network.routers01.sw_output_arbiter_activity      2094799                       (Unspecified)
system.ruby.network.routers02.Var_1                 3                       (Unspecified)
system.ruby.network.routers02.Var_2              3357                       (Unspecified)
system.ruby.network.routers02.Var_3             13227                       (Unspecified)
system.ruby.network.routers02.all_counts       110256                       (Unspecified)
system.ruby.network.routers02.buffer_reads      2085589                       (Unspecified)
system.ruby.network.routers02.buffer_writes      2085589                       (Unspecified)
system.ruby.network.routers02.crossbar_activity      2085589                       (Unspecified)
system.ruby.network.routers02.detour_counts         6790                       (Unspecified)
system.ruby.network.routers02.regular_var            0                       (Unspecified)
system.ruby.network.routers02.risk_counts        13263                       (Unspecified)
system.ruby.network.routers02.sw_input_arbiter_activity      2100551                       (Unspecified)
system.ruby.network.routers02.sw_output_arbiter_activity      2085589                       (Unspecified)
system.ruby.network.routers03.Var_1                 2                       (Unspecified)
system.ruby.network.routers03.Var_2              3334                       (Unspecified)
system.ruby.network.routers03.Var_3              8855                       (Unspecified)
system.ruby.network.routers03.all_counts       109213                       (Unspecified)
system.ruby.network.routers03.buffer_reads      1466725                       (Unspecified)
system.ruby.network.routers03.buffer_writes      1466725                       (Unspecified)
system.ruby.network.routers03.crossbar_activity      1466724                       (Unspecified)
system.ruby.network.routers03.detour_counts         4404                       (Unspecified)
system.ruby.network.routers03.regular_var            0                       (Unspecified)
system.ruby.network.routers03.risk_counts         8876                       (Unspecified)
system.ruby.network.routers03.sw_input_arbiter_activity      1473859                       (Unspecified)
system.ruby.network.routers03.sw_output_arbiter_activity      1466724                       (Unspecified)
system.ruby.network.routers04.Var_1                 7                       (Unspecified)
system.ruby.network.routers04.Var_2              3332                       (Unspecified)
system.ruby.network.routers04.Var_3             20793                       (Unspecified)
system.ruby.network.routers04.all_counts       110078                       (Unspecified)
system.ruby.network.routers04.buffer_reads      2099192                       (Unspecified)
system.ruby.network.routers04.buffer_writes      2099192                       (Unspecified)
system.ruby.network.routers04.crossbar_activity      2099192                       (Unspecified)
system.ruby.network.routers04.detour_counts        10436                       (Unspecified)
system.ruby.network.routers04.regular_var            1                       (Unspecified)
system.ruby.network.routers04.risk_counts        20806                       (Unspecified)
system.ruby.network.routers04.sw_input_arbiter_activity      2113992                       (Unspecified)
system.ruby.network.routers04.sw_output_arbiter_activity      2099192                       (Unspecified)
system.ruby.network.routers05.Var_1                 8                       (Unspecified)
system.ruby.network.routers05.Var_2              3516                       (Unspecified)
system.ruby.network.routers05.Var_3             23946                       (Unspecified)
system.ruby.network.routers05.all_counts       112642                       (Unspecified)
system.ruby.network.routers05.buffer_reads      2733004                       (Unspecified)
system.ruby.network.routers05.buffer_writes      2733004                       (Unspecified)
system.ruby.network.routers05.crossbar_activity      2733004                       (Unspecified)
system.ruby.network.routers05.detour_counts        11949                       (Unspecified)
system.ruby.network.routers05.regular_var            0                       (Unspecified)
system.ruby.network.routers05.risk_counts        23981                       (Unspecified)
system.ruby.network.routers05.sw_input_arbiter_activity      2756928                       (Unspecified)
system.ruby.network.routers05.sw_output_arbiter_activity      2733004                       (Unspecified)
system.ruby.network.routers06.Var_1                 6                       (Unspecified)
system.ruby.network.routers06.Var_2              3363                       (Unspecified)
system.ruby.network.routers06.Var_3             23885                       (Unspecified)
system.ruby.network.routers06.all_counts       111063                       (Unspecified)
system.ruby.network.routers06.buffer_reads      2722685                       (Unspecified)
system.ruby.network.routers06.buffer_writes      2722685                       (Unspecified)
system.ruby.network.routers06.crossbar_activity      2722685                       (Unspecified)
system.ruby.network.routers06.detour_counts        11779                       (Unspecified)
system.ruby.network.routers06.regular_var            0                       (Unspecified)
system.ruby.network.routers06.risk_counts        23914                       (Unspecified)
system.ruby.network.routers06.sw_input_arbiter_activity      2746338                       (Unspecified)
system.ruby.network.routers06.sw_output_arbiter_activity      2722685                       (Unspecified)
system.ruby.network.routers07.Var_1                 3                       (Unspecified)
system.ruby.network.routers07.Var_2              3330                       (Unspecified)
system.ruby.network.routers07.Var_3             19865                       (Unspecified)
system.ruby.network.routers07.all_counts       109885                       (Unspecified)
system.ruby.network.routers07.buffer_reads      2079723                       (Unspecified)
system.ruby.network.routers07.buffer_writes      2079723                       (Unspecified)
system.ruby.network.routers07.crossbar_activity      2079723                       (Unspecified)
system.ruby.network.routers07.detour_counts         9921                       (Unspecified)
system.ruby.network.routers07.regular_var            0                       (Unspecified)
system.ruby.network.routers07.risk_counts        19879                       (Unspecified)
system.ruby.network.routers07.sw_input_arbiter_activity      2094699                       (Unspecified)
system.ruby.network.routers07.sw_output_arbiter_activity      2079723                       (Unspecified)
system.ruby.network.routers08.Var_1                 4                       (Unspecified)
system.ruby.network.routers08.Var_2              3332                       (Unspecified)
system.ruby.network.routers08.Var_3             21092                       (Unspecified)
system.ruby.network.routers08.all_counts       110383                       (Unspecified)
system.ruby.network.routers08.buffer_reads      2107206                       (Unspecified)
system.ruby.network.routers08.buffer_writes      2107206                       (Unspecified)
system.ruby.network.routers08.crossbar_activity      2107206                       (Unspecified)
system.ruby.network.routers08.detour_counts        10561                       (Unspecified)
system.ruby.network.routers08.regular_var            0                       (Unspecified)
system.ruby.network.routers08.risk_counts        21104                       (Unspecified)
system.ruby.network.routers08.sw_input_arbiter_activity      2121982                       (Unspecified)
system.ruby.network.routers08.sw_output_arbiter_activity      2107206                       (Unspecified)
system.ruby.network.routers09.Var_1                 6                       (Unspecified)
system.ruby.network.routers09.Var_2              3315                       (Unspecified)
system.ruby.network.routers09.Var_3             24768                       (Unspecified)
system.ruby.network.routers09.all_counts       111906                       (Unspecified)
system.ruby.network.routers09.buffer_reads      2728428                       (Unspecified)
system.ruby.network.routers09.buffer_writes      2728428                       (Unspecified)
system.ruby.network.routers09.crossbar_activity      2728428                       (Unspecified)
system.ruby.network.routers09.detour_counts        12253                       (Unspecified)
system.ruby.network.routers09.regular_var            0                       (Unspecified)
system.ruby.network.routers09.risk_counts        24794                       (Unspecified)
system.ruby.network.routers09.sw_input_arbiter_activity      2752581                       (Unspecified)
system.ruby.network.routers09.sw_output_arbiter_activity      2728428                       (Unspecified)
system.ruby.network.routers10.Var_1                 8                       (Unspecified)
system.ruby.network.routers10.Var_2              3290                       (Unspecified)
system.ruby.network.routers10.Var_3             23769                       (Unspecified)
system.ruby.network.routers10.all_counts       112072                       (Unspecified)
system.ruby.network.routers10.buffer_reads      2723993                       (Unspecified)
system.ruby.network.routers10.buffer_writes      2723993                       (Unspecified)
system.ruby.network.routers10.crossbar_activity      2723992                       (Unspecified)
system.ruby.network.routers10.detour_counts        11895                       (Unspecified)
system.ruby.network.routers10.regular_var            0                       (Unspecified)
system.ruby.network.routers10.risk_counts        23803                       (Unspecified)
system.ruby.network.routers10.sw_input_arbiter_activity      2747567                       (Unspecified)
system.ruby.network.routers10.sw_output_arbiter_activity      2723992                       (Unspecified)
system.ruby.network.routers11.Var_1                 1                       (Unspecified)
system.ruby.network.routers11.Var_2              3344                       (Unspecified)
system.ruby.network.routers11.Var_3             19708                       (Unspecified)
system.ruby.network.routers11.all_counts       110624                       (Unspecified)
system.ruby.network.routers11.buffer_reads      2090011                       (Unspecified)
system.ruby.network.routers11.buffer_writes      2090011                       (Unspecified)
system.ruby.network.routers11.crossbar_activity      2090010                       (Unspecified)
system.ruby.network.routers11.detour_counts         9903                       (Unspecified)
system.ruby.network.routers11.regular_var            0                       (Unspecified)
system.ruby.network.routers11.risk_counts        19724                       (Unspecified)
system.ruby.network.routers11.sw_input_arbiter_activity      2105125                       (Unspecified)
system.ruby.network.routers11.sw_output_arbiter_activity      2090010                       (Unspecified)
system.ruby.network.routers12.Var_1                 5                       (Unspecified)
system.ruby.network.routers12.Var_2              3469                       (Unspecified)
system.ruby.network.routers12.Var_3              8945                       (Unspecified)
system.ruby.network.routers12.all_counts       110163                       (Unspecified)
system.ruby.network.routers12.buffer_reads      1534991                       (Unspecified)
system.ruby.network.routers12.buffer_writes      1534991                       (Unspecified)
system.ruby.network.routers12.crossbar_activity      1534991                       (Unspecified)
system.ruby.network.routers12.detour_counts         4446                       (Unspecified)
system.ruby.network.routers12.regular_var            0                       (Unspecified)
system.ruby.network.routers12.risk_counts         8968                       (Unspecified)
system.ruby.network.routers12.sw_input_arbiter_activity      1541953                       (Unspecified)
system.ruby.network.routers12.sw_output_arbiter_activity      1534991                       (Unspecified)
system.ruby.network.routers13.Var_1                13                       (Unspecified)
system.ruby.network.routers13.Var_2              3296                       (Unspecified)
system.ruby.network.routers13.Var_3             13514                       (Unspecified)
system.ruby.network.routers13.all_counts       110245                       (Unspecified)
system.ruby.network.routers13.buffer_reads      2120223                       (Unspecified)
system.ruby.network.routers13.buffer_writes      2120223                       (Unspecified)
system.ruby.network.routers13.crossbar_activity      2120223                       (Unspecified)
system.ruby.network.routers13.detour_counts         6780                       (Unspecified)
system.ruby.network.routers13.regular_var            0                       (Unspecified)
system.ruby.network.routers13.risk_counts        13547                       (Unspecified)
system.ruby.network.routers13.sw_input_arbiter_activity      2136543                       (Unspecified)
system.ruby.network.routers13.sw_output_arbiter_activity      2120223                       (Unspecified)
system.ruby.network.routers14.Var_1                 4                       (Unspecified)
system.ruby.network.routers14.Var_2              3313                       (Unspecified)
system.ruby.network.routers14.Var_3             13006                       (Unspecified)
system.ruby.network.routers14.all_counts       110717                       (Unspecified)
system.ruby.network.routers14.buffer_reads      2104113                       (Unspecified)
system.ruby.network.routers14.buffer_writes      2104113                       (Unspecified)
system.ruby.network.routers14.crossbar_activity      2104113                       (Unspecified)
system.ruby.network.routers14.detour_counts         6634                       (Unspecified)
system.ruby.network.routers14.regular_var            0                       (Unspecified)
system.ruby.network.routers14.risk_counts        13031                       (Unspecified)
system.ruby.network.routers14.sw_input_arbiter_activity      2119134                       (Unspecified)
system.ruby.network.routers14.sw_output_arbiter_activity      2104113                       (Unspecified)
system.ruby.network.routers15.Var_1                 1                       (Unspecified)
system.ruby.network.routers15.Var_2              3307                       (Unspecified)
system.ruby.network.routers15.Var_3              8617                       (Unspecified)
system.ruby.network.routers15.all_counts       109509                       (Unspecified)
system.ruby.network.routers15.buffer_reads      1482676                       (Unspecified)
system.ruby.network.routers15.buffer_writes      1482676                       (Unspecified)
system.ruby.network.routers15.crossbar_activity      1482676                       (Unspecified)
system.ruby.network.routers15.detour_counts         4386                       (Unspecified)
system.ruby.network.routers15.regular_var            0                       (Unspecified)
system.ruby.network.routers15.risk_counts         8651                       (Unspecified)
system.ruby.network.routers15.sw_input_arbiter_activity      1489593                       (Unspecified)
system.ruby.network.routers15.sw_output_arbiter_activity      1482676                       (Unspecified)

---------- End Simulation Statistics   ----------
