
---------- Begin Simulation Statistics ----------
simSeconds                                   0.022694                       # Number of seconds simulated (Second)
simTicks                                  22694264000                       # Number of ticks simulated (Tick)
finalTick                                 22694264000                       # Number of ticks from beginning of simulation (restored from checkpoints and never reset) (Tick)
simFreq                                  1000000000000                       # The number of ticks per simulated second ((Tick/Second))
hostSeconds                                   4984.21                       # Real time elapsed on the host (Second)
hostTickRate                                  4553234                       # The number of ticks simulated per host second (ticks/s) ((Tick/Second))
hostMemory                                   40796832                       # Number of bytes of host memory used (Byte)
simInsts                                    779241021                       # Number of instructions simulated (Count)
simOps                                     1461569674                       # Number of ops (including micro ops) simulated (Count)
hostInstRate                                   156342                       # Simulator instruction rate (inst/s) ((Count/Second))
hostOpRate                                     293240                       # Simulator op (including micro ops) rate (op/s) ((Count/Second))
system.clk_domain.clock                          1000                       # Clock period in ticks (Tick)
system.cpu0.numCycles                        45388529                       # Number of cpu cycles simulated (Cycle)
system.cpu0.numWorkItemsStarted                     0                       # Number of work items this cpu started (Count)
system.cpu0.numWorkItemsCompleted                   0                       # Number of work items this cpu completed (Count)
system.cpu0.instsAdded                       91385637                       # Number of instructions added to the IQ (excludes non-spec) (Count)
system.cpu0.nonSpecInstsAdded                    1759                       # Number of non-speculative instructions added to the IQ (Count)
system.cpu0.instsIssued                      90927275                       # Number of instructions issued (Count)
system.cpu0.squashedInstsIssued                  2754                       # Number of squashed instructions issued (Count)
system.cpu0.squashedInstsExamined             1240291                       # Number of squashed instructions iterated over during squash; mainly for profiling (Count)
system.cpu0.squashedOperandsExamined          2640047                       # Number of squashed operands that are examined and possibly removed from graph (Count)
system.cpu0.squashedNonSpecRemoved                140                       # Number of squashed non-spec instructions that were removed (Count)
system.cpu0.numIssuedDist::samples           43204634                       # Number of insts issued each cycle (Count)
system.cpu0.numIssuedDist::mean              2.104572                       # Number of insts issued each cycle (Count)
system.cpu0.numIssuedDist::stdev             2.342519                       # Number of insts issued each cycle (Count)
system.cpu0.numIssuedDist::underflows               0      0.00%      0.00% # Number of insts issued each cycle (Count)
system.cpu0.numIssuedDist::0                 19596933     45.36%     45.36% # Number of insts issued each cycle (Count)
system.cpu0.numIssuedDist::1                  1985986      4.60%     49.96% # Number of insts issued each cycle (Count)
system.cpu0.numIssuedDist::2                  4042881      9.36%     59.31% # Number of insts issued each cycle (Count)
system.cpu0.numIssuedDist::3                  5106119     11.82%     71.13% # Number of insts issued each cycle (Count)
system.cpu0.numIssuedDist::4                  4663968     10.80%     81.93% # Number of insts issued each cycle (Count)
system.cpu0.numIssuedDist::5                  3001886      6.95%     88.87% # Number of insts issued each cycle (Count)
system.cpu0.numIssuedDist::6                  2883425      6.67%     95.55% # Number of insts issued each cycle (Count)
system.cpu0.numIssuedDist::7                   816170      1.89%     97.44% # Number of insts issued each cycle (Count)
system.cpu0.numIssuedDist::8                  1107266      2.56%    100.00% # Number of insts issued each cycle (Count)
system.cpu0.numIssuedDist::overflows                0      0.00%    100.00% # Number of insts issued each cycle (Count)
system.cpu0.numIssuedDist::min_value                0                       # Number of insts issued each cycle (Count)
system.cpu0.numIssuedDist::max_value                8                       # Number of insts issued each cycle (Count)
system.cpu0.numIssuedDist::total             43204634                       # Number of insts issued each cycle (Count)
system.cpu0.statFuBusy::No_OpClass                  0      0.00%      0.00% # attempts to use FU when none available (Count)
system.cpu0.statFuBusy::IntAlu                 489245     66.84%     66.84% # attempts to use FU when none available (Count)
system.cpu0.statFuBusy::IntMult                     0      0.00%     66.84% # attempts to use FU when none available (Count)
system.cpu0.statFuBusy::IntDiv                      0      0.00%     66.84% # attempts to use FU when none available (Count)
system.cpu0.statFuBusy::FloatAdd                    0      0.00%     66.84% # attempts to use FU when none available (Count)
system.cpu0.statFuBusy::FloatCmp                    0      0.00%     66.84% # attempts to use FU when none available (Count)
system.cpu0.statFuBusy::FloatCvt                    0      0.00%     66.84% # attempts to use FU when none available (Count)
system.cpu0.statFuBusy::FloatMult                   0      0.00%     66.84% # attempts to use FU when none available (Count)
system.cpu0.statFuBusy::FloatMultAcc                0      0.00%     66.84% # attempts to use FU when none available (Count)
system.cpu0.statFuBusy::FloatDiv                    0      0.00%     66.84% # attempts to use FU when none available (Count)
system.cpu0.statFuBusy::FloatMisc                   0      0.00%     66.84% # attempts to use FU when none available (Count)
system.cpu0.statFuBusy::FloatSqrt                   0      0.00%     66.84% # attempts to use FU when none available (Count)
system.cpu0.statFuBusy::SimdAdd                    11      0.00%     66.84% # attempts to use FU when none available (Count)
system.cpu0.statFuBusy::SimdAddAcc                  0      0.00%     66.84% # attempts to use FU when none available (Count)
system.cpu0.statFuBusy::SimdAlu                   230      0.03%     66.87% # attempts to use FU when none available (Count)
system.cpu0.statFuBusy::SimdCmp                     0      0.00%     66.87% # attempts to use FU when none available (Count)
system.cpu0.statFuBusy::SimdCvt                   656      0.09%     66.96% # attempts to use FU when none available (Count)
system.cpu0.statFuBusy::SimdMisc                   21      0.00%     66.96% # attempts to use FU when none available (Count)
system.cpu0.statFuBusy::SimdMult                    0      0.00%     66.96% # attempts to use FU when none available (Count)
system.cpu0.statFuBusy::SimdMultAcc                 0      0.00%     66.96% # attempts to use FU when none available (Count)
system.cpu0.statFuBusy::SimdShift                 560      0.08%     67.04% # attempts to use FU when none available (Count)
system.cpu0.statFuBusy::SimdShiftAcc                0      0.00%     67.04% # attempts to use FU when none available (Count)
system.cpu0.statFuBusy::SimdDiv                     0      0.00%     67.04% # attempts to use FU when none available (Count)
system.cpu0.statFuBusy::SimdSqrt                    0      0.00%     67.04% # attempts to use FU when none available (Count)
system.cpu0.statFuBusy::SimdFloatAdd                0      0.00%     67.04% # attempts to use FU when none available (Count)
system.cpu0.statFuBusy::SimdFloatAlu                0      0.00%     67.04% # attempts to use FU when none available (Count)
system.cpu0.statFuBusy::SimdFloatCmp                0      0.00%     67.04% # attempts to use FU when none available (Count)
system.cpu0.statFuBusy::SimdFloatCvt                0      0.00%     67.04% # attempts to use FU when none available (Count)
system.cpu0.statFuBusy::SimdFloatDiv                0      0.00%     67.04% # attempts to use FU when none available (Count)
system.cpu0.statFuBusy::SimdFloatMisc               0      0.00%     67.04% # attempts to use FU when none available (Count)
system.cpu0.statFuBusy::SimdFloatMult               0      0.00%     67.04% # attempts to use FU when none available (Count)
system.cpu0.statFuBusy::SimdFloatMultAcc            0      0.00%     67.04% # attempts to use FU when none available (Count)
system.cpu0.statFuBusy::SimdFloatSqrt               0      0.00%     67.04% # attempts to use FU when none available (Count)
system.cpu0.statFuBusy::SimdReduceAdd               0      0.00%     67.04% # attempts to use FU when none available (Count)
system.cpu0.statFuBusy::SimdReduceAlu               0      0.00%     67.04% # attempts to use FU when none available (Count)
system.cpu0.statFuBusy::SimdReduceCmp               0      0.00%     67.04% # attempts to use FU when none available (Count)
system.cpu0.statFuBusy::SimdFloatReduceAdd            0      0.00%     67.04% # attempts to use FU when none available (Count)
system.cpu0.statFuBusy::SimdFloatReduceCmp            0      0.00%     67.04% # attempts to use FU when none available (Count)
system.cpu0.statFuBusy::SimdAes                     0      0.00%     67.04% # attempts to use FU when none available (Count)
system.cpu0.statFuBusy::SimdAesMix                  0      0.00%     67.04% # attempts to use FU when none available (Count)
system.cpu0.statFuBusy::SimdSha1Hash                0      0.00%     67.04% # attempts to use FU when none available (Count)
system.cpu0.statFuBusy::SimdSha1Hash2               0      0.00%     67.04% # attempts to use FU when none available (Count)
system.cpu0.statFuBusy::SimdSha256Hash              0      0.00%     67.04% # attempts to use FU when none available (Count)
system.cpu0.statFuBusy::SimdSha256Hash2             0      0.00%     67.04% # attempts to use FU when none available (Count)
system.cpu0.statFuBusy::SimdShaSigma2               0      0.00%     67.04% # attempts to use FU when none available (Count)
system.cpu0.statFuBusy::SimdShaSigma3               0      0.00%     67.04% # attempts to use FU when none available (Count)
system.cpu0.statFuBusy::SimdPredAlu                 0      0.00%     67.04% # attempts to use FU when none available (Count)
system.cpu0.statFuBusy::MemRead                 14795      2.02%     69.06% # attempts to use FU when none available (Count)
system.cpu0.statFuBusy::MemWrite               225048     30.74%     99.80% # attempts to use FU when none available (Count)
system.cpu0.statFuBusy::FloatMemRead             1066      0.15%     99.95% # attempts to use FU when none available (Count)
system.cpu0.statFuBusy::FloatMemWrite             383      0.05%    100.00% # attempts to use FU when none available (Count)
system.cpu0.statFuBusy::IprAccess                   0      0.00%    100.00% # attempts to use FU when none available (Count)
system.cpu0.statFuBusy::InstPrefetch                0      0.00%    100.00% # attempts to use FU when none available (Count)
system.cpu0.statIssuedInstType_0::No_OpClass      2613554      2.87%      2.87% # Number of instructions issued per FU type, per thread (Count)
system.cpu0.statIssuedInstType_0::IntAlu     64039413     70.43%     73.30% # Number of instructions issued per FU type, per thread (Count)
system.cpu0.statIssuedInstType_0::IntMult           65      0.00%     73.30% # Number of instructions issued per FU type, per thread (Count)
system.cpu0.statIssuedInstType_0::IntDiv        42943      0.05%     73.35% # Number of instructions issued per FU type, per thread (Count)
system.cpu0.statIssuedInstType_0::FloatAdd        10254      0.01%     73.36% # Number of instructions issued per FU type, per thread (Count)
system.cpu0.statIssuedInstType_0::FloatCmp            0      0.00%     73.36% # Number of instructions issued per FU type, per thread (Count)
system.cpu0.statIssuedInstType_0::FloatCvt         1868      0.00%     73.36% # Number of instructions issued per FU type, per thread (Count)
system.cpu0.statIssuedInstType_0::FloatMult            0      0.00%     73.36% # Number of instructions issued per FU type, per thread (Count)
system.cpu0.statIssuedInstType_0::FloatMultAcc            0      0.00%     73.36% # Number of instructions issued per FU type, per thread (Count)
system.cpu0.statIssuedInstType_0::FloatDiv            0      0.00%     73.36% # Number of instructions issued per FU type, per thread (Count)
system.cpu0.statIssuedInstType_0::FloatMisc            0      0.00%     73.36% # Number of instructions issued per FU type, per thread (Count)
system.cpu0.statIssuedInstType_0::FloatSqrt            0      0.00%     73.36% # Number of instructions issued per FU type, per thread (Count)
system.cpu0.statIssuedInstType_0::SimdAdd         9520      0.01%     73.37% # Number of instructions issued per FU type, per thread (Count)
system.cpu0.statIssuedInstType_0::SimdAddAcc            0      0.00%     73.37% # Number of instructions issued per FU type, per thread (Count)
system.cpu0.statIssuedInstType_0::SimdAlu        21507      0.02%     73.40% # Number of instructions issued per FU type, per thread (Count)
system.cpu0.statIssuedInstType_0::SimdCmp           12      0.00%     73.40% # Number of instructions issued per FU type, per thread (Count)
system.cpu0.statIssuedInstType_0::SimdCvt        20995      0.02%     73.42% # Number of instructions issued per FU type, per thread (Count)
system.cpu0.statIssuedInstType_0::SimdMisc        17801      0.02%     73.44% # Number of instructions issued per FU type, per thread (Count)
system.cpu0.statIssuedInstType_0::SimdMult            0      0.00%     73.44% # Number of instructions issued per FU type, per thread (Count)
system.cpu0.statIssuedInstType_0::SimdMultAcc            0      0.00%     73.44% # Number of instructions issued per FU type, per thread (Count)
system.cpu0.statIssuedInstType_0::SimdShift         6946      0.01%     73.45% # Number of instructions issued per FU type, per thread (Count)
system.cpu0.statIssuedInstType_0::SimdShiftAcc            0      0.00%     73.45% # Number of instructions issued per FU type, per thread (Count)
system.cpu0.statIssuedInstType_0::SimdDiv            0      0.00%     73.45% # Number of instructions issued per FU type, per thread (Count)
system.cpu0.statIssuedInstType_0::SimdSqrt            0      0.00%     73.45% # Number of instructions issued per FU type, per thread (Count)
system.cpu0.statIssuedInstType_0::SimdFloatAdd            9      0.00%     73.45% # Number of instructions issued per FU type, per thread (Count)
system.cpu0.statIssuedInstType_0::SimdFloatAlu            0      0.00%     73.45% # Number of instructions issued per FU type, per thread (Count)
system.cpu0.statIssuedInstType_0::SimdFloatCmp            0      0.00%     73.45% # Number of instructions issued per FU type, per thread (Count)
system.cpu0.statIssuedInstType_0::SimdFloatCvt           13      0.00%     73.45% # Number of instructions issued per FU type, per thread (Count)
system.cpu0.statIssuedInstType_0::SimdFloatDiv            1      0.00%     73.45% # Number of instructions issued per FU type, per thread (Count)
system.cpu0.statIssuedInstType_0::SimdFloatMisc            0      0.00%     73.45% # Number of instructions issued per FU type, per thread (Count)
system.cpu0.statIssuedInstType_0::SimdFloatMult            8      0.00%     73.45% # Number of instructions issued per FU type, per thread (Count)
system.cpu0.statIssuedInstType_0::SimdFloatMultAcc            0      0.00%     73.45% # Number of instructions issued per FU type, per thread (Count)
system.cpu0.statIssuedInstType_0::SimdFloatSqrt            0      0.00%     73.45% # Number of instructions issued per FU type, per thread (Count)
system.cpu0.statIssuedInstType_0::SimdReduceAdd            0      0.00%     73.45% # Number of instructions issued per FU type, per thread (Count)
system.cpu0.statIssuedInstType_0::SimdReduceAlu            0      0.00%     73.45% # Number of instructions issued per FU type, per thread (Count)
system.cpu0.statIssuedInstType_0::SimdReduceCmp            0      0.00%     73.45% # Number of instructions issued per FU type, per thread (Count)
system.cpu0.statIssuedInstType_0::SimdFloatReduceAdd            0      0.00%     73.45% # Number of instructions issued per FU type, per thread (Count)
system.cpu0.statIssuedInstType_0::SimdFloatReduceCmp            0      0.00%     73.45% # Number of instructions issued per FU type, per thread (Count)
system.cpu0.statIssuedInstType_0::SimdAes            0      0.00%     73.45% # Number of instructions issued per FU type, per thread (Count)
system.cpu0.statIssuedInstType_0::SimdAesMix            0      0.00%     73.45% # Number of instructions issued per FU type, per thread (Count)
system.cpu0.statIssuedInstType_0::SimdSha1Hash            0      0.00%     73.45% # Number of instructions issued per FU type, per thread (Count)
system.cpu0.statIssuedInstType_0::SimdSha1Hash2            0      0.00%     73.45% # Number of instructions issued per FU type, per thread (Count)
system.cpu0.statIssuedInstType_0::SimdSha256Hash            0      0.00%     73.45% # Number of instructions issued per FU type, per thread (Count)
system.cpu0.statIssuedInstType_0::SimdSha256Hash2            0      0.00%     73.45% # Number of instructions issued per FU type, per thread (Count)
system.cpu0.statIssuedInstType_0::SimdShaSigma2            0      0.00%     73.45% # Number of instructions issued per FU type, per thread (Count)
system.cpu0.statIssuedInstType_0::SimdShaSigma3            0      0.00%     73.45% # Number of instructions issued per FU type, per thread (Count)
system.cpu0.statIssuedInstType_0::SimdPredAlu            0      0.00%     73.45% # Number of instructions issued per FU type, per thread (Count)
system.cpu0.statIssuedInstType_0::MemRead     14825839     16.31%     89.75% # Number of instructions issued per FU type, per thread (Count)
system.cpu0.statIssuedInstType_0::MemWrite      9265252     10.19%     99.94% # Number of instructions issued per FU type, per thread (Count)
system.cpu0.statIssuedInstType_0::FloatMemRead        32797      0.04%     99.98% # Number of instructions issued per FU type, per thread (Count)
system.cpu0.statIssuedInstType_0::FloatMemWrite        18478      0.02%    100.00% # Number of instructions issued per FU type, per thread (Count)
system.cpu0.statIssuedInstType_0::IprAccess            0      0.00%    100.00% # Number of instructions issued per FU type, per thread (Count)
system.cpu0.statIssuedInstType_0::InstPrefetch            0      0.00%    100.00% # Number of instructions issued per FU type, per thread (Count)
system.cpu0.statIssuedInstType_0::total      90927275                       # Number of instructions issued per FU type, per thread (Count)
system.cpu0.issueRate                        2.003310                       # Inst issue rate ((Count/Cycle))
system.cpu0.fuBusy                             732015                       # FU busy when requested (Count)
system.cpu0.fuBusyRate                       0.008051                       # FU busy rate (busy events/executed inst) ((Count/Count))
system.cpu0.intInstQueueReads               225497123                       # Number of integer instruction queue reads (Count)
system.cpu0.intInstQueueWrites               92397018                       # Number of integer instruction queue writes (Count)
system.cpu0.intInstQueueWakeupAccesses       90718259                       # Number of integer instruction queue wakeup accesses (Count)
system.cpu0.fpInstQueueReads                   296830                       # Number of floating instruction queue reads (Count)
system.cpu0.fpInstQueueWrites                  231410                       # Number of floating instruction queue writes (Count)
system.cpu0.fpInstQueueWakeupAccesses          139943                       # Number of floating instruction queue wakeup accesses (Count)
system.cpu0.vecInstQueueReads                       0                       # Number of vector instruction queue reads (Count)
system.cpu0.vecInstQueueWrites                      0                       # Number of vector instruction queue writes (Count)
system.cpu0.vecInstQueueWakeupAccesses              0                       # Number of vector instruction queue wakeup accesses (Count)
system.cpu0.intAluAccesses                   88896146                       # Number of integer alu accesses (Count)
system.cpu0.fpAluAccesses                      149590                       # Number of floating point alu accesses (Count)
system.cpu0.vecAluAccesses                          0                       # Number of vector alu accesses (Count)
system.cpu0.numInsts                         90891019                       # Number of executed instructions (Count)
system.cpu0.numLoadInsts                     14850596                       # Number of load instructions executed (Count)
system.cpu0.numSquashedInsts                    36256                       # Number of squashed instructions skipped in execute (Count)
system.cpu0.numSwp                                  0                       # Number of swp insts executed (Count)
system.cpu0.numNop                                  0                       # Number of nop insts executed (Count)
system.cpu0.numRefs                          24131228                       # Number of memory reference insts executed (Count)
system.cpu0.numBranches                       8360438                       # Number of branches executed (Count)
system.cpu0.numStoreInsts                     9280632                       # Number of stores executed (Count)
system.cpu0.numRate                          2.002511                       # Inst execution rate ((Count/Cycle))
system.cpu0.timesIdled                           4619                       # Number of times that the entire CPU went into an idle state and unscheduled itself (Count)
system.cpu0.idleCycles                        2183895                       # Total number of cycles that the CPU has spent unscheduled due to idling (Cycle)
system.cpu0.committedInsts                   48064640                       # Number of Instructions Simulated (Count)
system.cpu0.committedOps                     90147105                       # Number of Ops (including micro ops) Simulated (Count)
system.cpu0.cpi                              0.944323                       # CPI: Cycles Per Instruction ((Cycle/Count))
system.cpu0.totalCpi                         0.944323                       # CPI: Total CPI of All Threads ((Cycle/Count))
system.cpu0.ipc                              1.058960                       # IPC: Instructions Per Cycle ((Count/Cycle))
system.cpu0.totalIpc                         1.058960                       # IPC: Total IPC of All Threads ((Count/Cycle))
system.cpu0.intRegfileReads                 126269523                       # Number of integer regfile reads (Count)
system.cpu0.intRegfileWrites                 66610958                       # Number of integer regfile writes (Count)
system.cpu0.fpRegfileReads                     197899                       # Number of floating regfile reads (Count)
system.cpu0.fpRegfileWrites                    110616                       # Number of floating regfile writes (Count)
system.cpu0.ccRegfileReads                   27046235                       # number of cc regfile reads (Count)
system.cpu0.ccRegfileWrites                  18888453                       # number of cc regfile writes (Count)
system.cpu0.miscRegfileReads                 39178036                       # number of misc regfile reads (Count)
system.cpu0.miscRegfileWrites                    1035                       # number of misc regfile writes (Count)
system.cpu0.MemDepUnit__0.insertedLoads      14894940                       # Number of loads inserted to the mem dependence unit. (Count)
system.cpu0.MemDepUnit__0.insertedStores      9301655                       # Number of stores inserted to the mem dependence unit. (Count)
system.cpu0.MemDepUnit__0.conflictingLoads      1319821                       # Number of conflicting loads. (Count)
system.cpu0.MemDepUnit__0.conflictingStores       731519                       # Number of conflicting stores. (Count)
system.cpu0.MemDepUnit__1.insertedLoads             0                       # Number of loads inserted to the mem dependence unit. (Count)
system.cpu0.MemDepUnit__1.insertedStores            0                       # Number of stores inserted to the mem dependence unit. (Count)
system.cpu0.MemDepUnit__1.conflictingLoads            0                       # Number of conflicting loads. (Count)
system.cpu0.MemDepUnit__1.conflictingStores            0                       # Number of conflicting stores. (Count)
system.cpu0.MemDepUnit__2.insertedLoads             0                       # Number of loads inserted to the mem dependence unit. (Count)
system.cpu0.MemDepUnit__2.insertedStores            0                       # Number of stores inserted to the mem dependence unit. (Count)
system.cpu0.MemDepUnit__2.conflictingLoads            0                       # Number of conflicting loads. (Count)
system.cpu0.MemDepUnit__2.conflictingStores            0                       # Number of conflicting stores. (Count)
system.cpu0.MemDepUnit__3.insertedLoads             0                       # Number of loads inserted to the mem dependence unit. (Count)
system.cpu0.MemDepUnit__3.insertedStores            0                       # Number of stores inserted to the mem dependence unit. (Count)
system.cpu0.MemDepUnit__3.conflictingLoads            0                       # Number of conflicting loads. (Count)
system.cpu0.MemDepUnit__3.conflictingStores            0                       # Number of conflicting stores. (Count)
system.cpu0.branchPred.lookups                8488945                       # Number of BP lookups (Count)
system.cpu0.branchPred.condPredicted          3688418                       # Number of conditional branches predicted (Count)
system.cpu0.branchPred.condIncorrect            20231                       # Number of conditional branches incorrect (Count)
system.cpu0.branchPred.BTBLookups             3718834                       # Number of BTB lookups (Count)
system.cpu0.branchPred.BTBUpdates               10511                       # Number of BTB updates (Count)
system.cpu0.branchPred.BTBHits                3712379                       # Number of BTB hits (Count)
system.cpu0.branchPred.BTBHitRatio           0.998264                       # BTB Hit Ratio (Ratio)
system.cpu0.branchPred.RASUsed                1733983                       # Number of times the RAS was used to get a target. (Count)
system.cpu0.branchPred.RASIncorrect                17                       # Number of incorrect RAS predictions. (Count)
system.cpu0.branchPred.indirectLookups        1307102                       # Number of indirect predictor lookups. (Count)
system.cpu0.branchPred.indirectHits           1291883                       # Number of indirect target hits. (Count)
system.cpu0.branchPred.indirectMisses           15219                       # Number of indirect misses. (Count)
system.cpu0.branchPred.indirectMispredicted         3063                       # Number of mispredicted indirect branches. (Count)
system.cpu0.commit.commitSquashedInsts        1224335                       # The number of squashed insts skipped by commit (Count)
system.cpu0.commit.commitNonSpecStalls           1619                       # The number of times commit has been forced to stall to communicate backwards (Count)
system.cpu0.commit.branchMispredicts            19252                       # The number of times a branch was mispredicted (Count)
system.cpu0.commit.numCommittedDist::samples     43037453                       # Number of insts commited each cycle (Count)
system.cpu0.commit.numCommittedDist::mean     2.094620                       # Number of insts commited each cycle (Count)
system.cpu0.commit.numCommittedDist::stdev     2.884053                       # Number of insts commited each cycle (Count)
system.cpu0.commit.numCommittedDist::underflows            0      0.00%      0.00% # Number of insts commited each cycle (Count)
system.cpu0.commit.numCommittedDist::0       21967622     51.04%     51.04% # Number of insts commited each cycle (Count)
system.cpu0.commit.numCommittedDist::1        4765327     11.07%     62.12% # Number of insts commited each cycle (Count)
system.cpu0.commit.numCommittedDist::2        2111347      4.91%     67.02% # Number of insts commited each cycle (Count)
system.cpu0.commit.numCommittedDist::3        4777016     11.10%     78.12% # Number of insts commited each cycle (Count)
system.cpu0.commit.numCommittedDist::4         496904      1.15%     79.28% # Number of insts commited each cycle (Count)
system.cpu0.commit.numCommittedDist::5        1353914      3.15%     82.42% # Number of insts commited each cycle (Count)
system.cpu0.commit.numCommittedDist::6         696117      1.62%     84.04% # Number of insts commited each cycle (Count)
system.cpu0.commit.numCommittedDist::7        1059500      2.46%     86.50% # Number of insts commited each cycle (Count)
system.cpu0.commit.numCommittedDist::8        5809706     13.50%    100.00% # Number of insts commited each cycle (Count)
system.cpu0.commit.numCommittedDist::overflows            0      0.00%    100.00% # Number of insts commited each cycle (Count)
system.cpu0.commit.numCommittedDist::min_value            0                       # Number of insts commited each cycle (Count)
system.cpu0.commit.numCommittedDist::max_value            8                       # Number of insts commited each cycle (Count)
system.cpu0.commit.numCommittedDist::total     43037453                       # Number of insts commited each cycle (Count)
system.cpu0.commit.instsCommitted            48064640                       # Number of instructions committed (Count)
system.cpu0.commit.opsCommitted              90147105                       # Number of ops (including micro ops) committed (Count)
system.cpu0.commit.memRefs                   23954278                       # Number of memory references committed (Count)
system.cpu0.commit.loads                     14724271                       # Number of loads committed (Count)
system.cpu0.commit.amos                             0                       # Number of atomic instructions committed (Count)
system.cpu0.commit.membars                        386                       # Number of memory barriers committed (Count)
system.cpu0.commit.branches                   8323435                       # Number of branches committed (Count)
system.cpu0.commit.vectorInstructions               0                       # Number of committed Vector instructions. (Count)
system.cpu0.commit.floating                    111526                       # Number of committed floating point instructions. (Count)
system.cpu0.commit.integer                   87272459                       # Number of committed integer instructions. (Count)
system.cpu0.commit.functionCalls              1726973                       # Number of function calls committed. (Count)
system.cpu0.commit.committedInstType_0::No_OpClass      2589241      2.87%      2.87% # Class of committed instruction (Count)
system.cpu0.commit.committedInstType_0::IntAlu     63495182     70.44%     73.31% # Class of committed instruction (Count)
system.cpu0.commit.committedInstType_0::IntMult           50      0.00%     73.31% # Class of committed instruction (Count)
system.cpu0.commit.committedInstType_0::IntDiv        40160      0.04%     73.35% # Class of committed instruction (Count)
system.cpu0.commit.committedInstType_0::FloatAdd         8174      0.01%     73.36% # Class of committed instruction (Count)
system.cpu0.commit.committedInstType_0::FloatCmp            0      0.00%     73.36% # Class of committed instruction (Count)
system.cpu0.commit.committedInstType_0::FloatCvt         1840      0.00%     73.36% # Class of committed instruction (Count)
system.cpu0.commit.committedInstType_0::FloatMult            0      0.00%     73.36% # Class of committed instruction (Count)
system.cpu0.commit.committedInstType_0::FloatMultAcc            0      0.00%     73.36% # Class of committed instruction (Count)
system.cpu0.commit.committedInstType_0::FloatDiv            0      0.00%     73.36% # Class of committed instruction (Count)
system.cpu0.commit.committedInstType_0::FloatMisc            0      0.00%     73.36% # Class of committed instruction (Count)
system.cpu0.commit.committedInstType_0::FloatSqrt            0      0.00%     73.36% # Class of committed instruction (Count)
system.cpu0.commit.committedInstType_0::SimdAdd         7798      0.01%     73.37% # Class of committed instruction (Count)
system.cpu0.commit.committedInstType_0::SimdAddAcc            0      0.00%     73.37% # Class of committed instruction (Count)
system.cpu0.commit.committedInstType_0::SimdAlu        15585      0.02%     73.39% # Class of committed instruction (Count)
system.cpu0.commit.committedInstType_0::SimdCmp           12      0.00%     73.39% # Class of committed instruction (Count)
system.cpu0.commit.committedInstType_0::SimdCvt        15798      0.02%     73.41% # Class of committed instruction (Count)
system.cpu0.commit.committedInstType_0::SimdMisc        15585      0.02%     73.42% # Class of committed instruction (Count)
system.cpu0.commit.committedInstType_0::SimdMult            0      0.00%     73.42% # Class of committed instruction (Count)
system.cpu0.commit.committedInstType_0::SimdMultAcc            0      0.00%     73.42% # Class of committed instruction (Count)
system.cpu0.commit.committedInstType_0::SimdShift         3383      0.00%     73.43% # Class of committed instruction (Count)
system.cpu0.commit.committedInstType_0::SimdShiftAcc            0      0.00%     73.43% # Class of committed instruction (Count)
system.cpu0.commit.committedInstType_0::SimdDiv            0      0.00%     73.43% # Class of committed instruction (Count)
system.cpu0.commit.committedInstType_0::SimdSqrt            0      0.00%     73.43% # Class of committed instruction (Count)
system.cpu0.commit.committedInstType_0::SimdFloatAdd            6      0.00%     73.43% # Class of committed instruction (Count)
system.cpu0.commit.committedInstType_0::SimdFloatAlu            0      0.00%     73.43% # Class of committed instruction (Count)
system.cpu0.commit.committedInstType_0::SimdFloatCmp            0      0.00%     73.43% # Class of committed instruction (Count)
system.cpu0.commit.committedInstType_0::SimdFloatCvt            7      0.00%     73.43% # Class of committed instruction (Count)
system.cpu0.commit.committedInstType_0::SimdFloatDiv            1      0.00%     73.43% # Class of committed instruction (Count)
system.cpu0.commit.committedInstType_0::SimdFloatMisc            0      0.00%     73.43% # Class of committed instruction (Count)
system.cpu0.commit.committedInstType_0::SimdFloatMult            5      0.00%     73.43% # Class of committed instruction (Count)
system.cpu0.commit.committedInstType_0::SimdFloatMultAcc            0      0.00%     73.43% # Class of committed instruction (Count)
system.cpu0.commit.committedInstType_0::SimdFloatSqrt            0      0.00%     73.43% # Class of committed instruction (Count)
system.cpu0.commit.committedInstType_0::SimdReduceAdd            0      0.00%     73.43% # Class of committed instruction (Count)
system.cpu0.commit.committedInstType_0::SimdReduceAlu            0      0.00%     73.43% # Class of committed instruction (Count)
system.cpu0.commit.committedInstType_0::SimdReduceCmp            0      0.00%     73.43% # Class of committed instruction (Count)
system.cpu0.commit.committedInstType_0::SimdFloatReduceAdd            0      0.00%     73.43% # Class of committed instruction (Count)
system.cpu0.commit.committedInstType_0::SimdFloatReduceCmp            0      0.00%     73.43% # Class of committed instruction (Count)
system.cpu0.commit.committedInstType_0::SimdAes            0      0.00%     73.43% # Class of committed instruction (Count)
system.cpu0.commit.committedInstType_0::SimdAesMix            0      0.00%     73.43% # Class of committed instruction (Count)
system.cpu0.commit.committedInstType_0::SimdSha1Hash            0      0.00%     73.43% # Class of committed instruction (Count)
system.cpu0.commit.committedInstType_0::SimdSha1Hash2            0      0.00%     73.43% # Class of committed instruction (Count)
system.cpu0.commit.committedInstType_0::SimdSha256Hash            0      0.00%     73.43% # Class of committed instruction (Count)
system.cpu0.commit.committedInstType_0::SimdSha256Hash2            0      0.00%     73.43% # Class of committed instruction (Count)
system.cpu0.commit.committedInstType_0::SimdShaSigma2            0      0.00%     73.43% # Class of committed instruction (Count)
system.cpu0.commit.committedInstType_0::SimdShaSigma3            0      0.00%     73.43% # Class of committed instruction (Count)
system.cpu0.commit.committedInstType_0::SimdPredAlu            0      0.00%     73.43% # Class of committed instruction (Count)
system.cpu0.commit.committedInstType_0::MemRead     14703304     16.31%     89.74% # Class of committed instruction (Count)
system.cpu0.commit.committedInstType_0::MemWrite      9213022     10.22%     99.96% # Class of committed instruction (Count)
system.cpu0.commit.committedInstType_0::FloatMemRead        20967      0.02%     99.98% # Class of committed instruction (Count)
system.cpu0.commit.committedInstType_0::FloatMemWrite        16985      0.02%    100.00% # Class of committed instruction (Count)
system.cpu0.commit.committedInstType_0::IprAccess            0      0.00%    100.00% # Class of committed instruction (Count)
system.cpu0.commit.committedInstType_0::InstPrefetch            0      0.00%    100.00% # Class of committed instruction (Count)
system.cpu0.commit.committedInstType_0::total     90147105                       # Class of committed instruction (Count)
system.cpu0.commit.commitEligibleSamples      5809706                       # number cycles where commit BW limit reached (Cycle)
system.cpu0.decode.idleCycles                 8713702                       # Number of cycles decode is idle (Cycle)
system.cpu0.decode.blockedCycles             18945099                       # Number of cycles decode is blocked (Cycle)
system.cpu0.decode.runCycles                 15224905                       # Number of cycles decode is running (Cycle)
system.cpu0.decode.unblockCycles               300230                       # Number of cycles decode is unblocking (Cycle)
system.cpu0.decode.squashCycles                 20698                       # Number of cycles decode is squashing (Cycle)
system.cpu0.decode.branchResolved             3699718                       # Number of times decode resolved a branch (Count)
system.cpu0.decode.branchMispred                 2734                       # Number of times decode detected a branch misprediction (Count)
system.cpu0.decode.decodedInsts              91617256                       # Number of instructions handled by decode (Count)
system.cpu0.decode.squashedInsts                13790                       # Number of squashed instructions handled by decode (Count)
system.cpu0.fetch.icacheStallCycles           8571313                       # Number of cycles fetch is stalled on an Icache miss (Cycle)
system.cpu0.fetch.insts                      49060348                       # Number of instructions fetch has processed (Count)
system.cpu0.fetch.branches                    8488945                       # Number of branches that fetch encountered (Count)
system.cpu0.fetch.predictedBranches           6738245                       # Number of branches that fetch has predicted taken (Count)
system.cpu0.fetch.cycles                     34172977                       # Number of cycles fetch has run and was not squashing or blocked (Cycle)
system.cpu0.fetch.squashCycles                  46762                       # Number of cycles fetch has spent squashing (Cycle)
system.cpu0.fetch.miscStallCycles                8659                       # Number of cycles fetch has spent waiting on interrupts, or bad addresses, or out of MSHRs (Cycle)
system.cpu0.fetch.pendingTrapStallCycles        11835                       # Number of stall cycles due to pending traps (Cycle)
system.cpu0.fetch.icacheWaitRetryStallCycles       416469                       # Number of stall cycles due to full MSHR (Cycle)
system.cpu0.fetch.cacheLines                  8213138                       # Number of cache lines fetched (Count)
system.cpu0.fetch.icacheSquashes                 6064                       # Number of outstanding Icache misses that were squashed (Count)
system.cpu0.fetch.nisnDist::samples          43204634                       # Number of instructions fetched each cycle (Total) (Count)
system.cpu0.fetch.nisnDist::mean             2.127929                       # Number of instructions fetched each cycle (Total) (Count)
system.cpu0.fetch.nisnDist::stdev            3.201388                       # Number of instructions fetched each cycle (Total) (Count)
system.cpu0.fetch.nisnDist::underflows              0      0.00%      0.00% # Number of instructions fetched each cycle (Total) (Count)
system.cpu0.fetch.nisnDist::0                27426018     63.48%     63.48% # Number of instructions fetched each cycle (Total) (Count)
system.cpu0.fetch.nisnDist::1                 1346550      3.12%     66.60% # Number of instructions fetched each cycle (Total) (Count)
system.cpu0.fetch.nisnDist::2                 1553539      3.60%     70.19% # Number of instructions fetched each cycle (Total) (Count)
system.cpu0.fetch.nisnDist::3                  720129      1.67%     71.86% # Number of instructions fetched each cycle (Total) (Count)
system.cpu0.fetch.nisnDist::4                 1410492      3.26%     75.12% # Number of instructions fetched each cycle (Total) (Count)
system.cpu0.fetch.nisnDist::5                 1107491      2.56%     77.69% # Number of instructions fetched each cycle (Total) (Count)
system.cpu0.fetch.nisnDist::6                  927737      2.15%     79.83% # Number of instructions fetched each cycle (Total) (Count)
system.cpu0.fetch.nisnDist::7                 1124898      2.60%     82.44% # Number of instructions fetched each cycle (Total) (Count)
system.cpu0.fetch.nisnDist::8                 7587780     17.56%    100.00% # Number of instructions fetched each cycle (Total) (Count)
system.cpu0.fetch.nisnDist::overflows               0      0.00%    100.00% # Number of instructions fetched each cycle (Total) (Count)
system.cpu0.fetch.nisnDist::min_value               0                       # Number of instructions fetched each cycle (Total) (Count)
system.cpu0.fetch.nisnDist::max_value               8                       # Number of instructions fetched each cycle (Total) (Count)
system.cpu0.fetch.nisnDist::total            43204634                       # Number of instructions fetched each cycle (Total) (Count)
system.cpu0.fetch.branchRate                 0.187028                       # Number of branch fetches per cycle (Ratio)
system.cpu0.fetch.rate                       1.080898                       # Number of inst fetches per cycle ((Count/Cycle))
system.cpu0.iew.idleCycles                          0                       # Number of cycles IEW is idle (Cycle)
system.cpu0.iew.squashCycles                    20698                       # Number of cycles IEW is squashing (Cycle)
system.cpu0.iew.blockCycles                   6653157                       # Number of cycles IEW is blocking (Cycle)
system.cpu0.iew.unblockCycles                  142672                       # Number of cycles IEW is unblocking (Cycle)
system.cpu0.iew.dispatchedInsts              91387396                       # Number of instructions dispatched to IQ (Count)
system.cpu0.iew.dispSquashedInsts                1133                       # Number of squashed instructions skipped by dispatch (Count)
system.cpu0.iew.dispLoadInsts                14894940                       # Number of dispatched load instructions (Count)
system.cpu0.iew.dispStoreInsts                9301655                       # Number of dispatched store instructions (Count)
system.cpu0.iew.dispNonSpecInsts                 1288                       # Number of dispatched non-speculative instructions (Count)
system.cpu0.iew.iqFullEvents                    12299                       # Number of times the IQ has become full, causing a stall (Count)
system.cpu0.iew.lsqFullEvents                  122857                       # Number of times the LSQ has become full, causing a stall (Count)
system.cpu0.iew.memOrderViolationEvents           754                       # Number of memory order violations (Count)
system.cpu0.iew.predictedTakenIncorrect          7341                       # Number of branches that were predicted taken incorrectly (Count)
system.cpu0.iew.predictedNotTakenIncorrect        15386                       # Number of branches that were predicted not taken incorrectly (Count)
system.cpu0.iew.branchMispredicts               22727                       # Number of branch mispredicts detected at execute (Count)
system.cpu0.iew.instsToCommit                90869333                       # Cumulative count of insts sent to commit (Count)
system.cpu0.iew.writebackCount               90858202                       # Cumulative count of insts written-back (Count)
system.cpu0.iew.producerInst                 60688506                       # Number of instructions producing a value (Count)
system.cpu0.iew.consumerInst                100939506                       # Number of instructions consuming a value (Count)
system.cpu0.iew.wbRate                       2.001788                       # Insts written-back per cycle ((Count/Cycle))
system.cpu0.iew.wbFanout                     0.601236                       # Average fanout of values written-back ((Count/Count))
system.cpu0.interrupts.clk_domain.clock          8000                       # Clock period in ticks (Tick)
system.cpu0.lsq0.forwLoads                    4349998                       # Number of loads that had data forwarded from stores (Count)
system.cpu0.lsq0.squashedLoads                 170669                       # Number of loads squashed (Count)
system.cpu0.lsq0.ignoredResponses                  86                       # Number of memory responses ignored because the instruction is squashed (Count)
system.cpu0.lsq0.memOrderViolation                754                       # Number of memory ordering violations (Count)
system.cpu0.lsq0.squashedStores                 71648                       # Number of stores squashed (Count)
system.cpu0.lsq0.rescheduledLoads                  18                       # Number of loads that were rescheduled (Count)
system.cpu0.lsq0.blockedByCache                  3029                       # Number of times an access to memory failed due to the cache being blocked (Count)
system.cpu0.lsq0.loadToUse::samples          14724271                       # Distribution of cycle latency between the first time a load is issued and its completion (Unspecified)
system.cpu0.lsq0.loadToUse::mean             5.337168                       # Distribution of cycle latency between the first time a load is issued and its completion (Unspecified)
system.cpu0.lsq0.loadToUse::stdev           46.553513                       # Distribution of cycle latency between the first time a load is issued and its completion (Unspecified)
system.cpu0.lsq0.loadToUse::0-9              14669582     99.63%     99.63% # Distribution of cycle latency between the first time a load is issued and its completion (Unspecified)
system.cpu0.lsq0.loadToUse::10-19                  29      0.00%     99.63% # Distribution of cycle latency between the first time a load is issued and its completion (Unspecified)
system.cpu0.lsq0.loadToUse::20-29                  31      0.00%     99.63% # Distribution of cycle latency between the first time a load is issued and its completion (Unspecified)
system.cpu0.lsq0.loadToUse::30-39                  40      0.00%     99.63% # Distribution of cycle latency between the first time a load is issued and its completion (Unspecified)
system.cpu0.lsq0.loadToUse::40-49                  70      0.00%     99.63% # Distribution of cycle latency between the first time a load is issued and its completion (Unspecified)
system.cpu0.lsq0.loadToUse::50-59                 104      0.00%     99.63% # Distribution of cycle latency between the first time a load is issued and its completion (Unspecified)
system.cpu0.lsq0.loadToUse::60-69                  45      0.00%     99.63% # Distribution of cycle latency between the first time a load is issued and its completion (Unspecified)
system.cpu0.lsq0.loadToUse::70-79                  46      0.00%     99.63% # Distribution of cycle latency between the first time a load is issued and its completion (Unspecified)
system.cpu0.lsq0.loadToUse::80-89                  47      0.00%     99.63% # Distribution of cycle latency between the first time a load is issued and its completion (Unspecified)
system.cpu0.lsq0.loadToUse::90-99                  36      0.00%     99.63% # Distribution of cycle latency between the first time a load is issued and its completion (Unspecified)
system.cpu0.lsq0.loadToUse::100-109                45      0.00%     99.63% # Distribution of cycle latency between the first time a load is issued and its completion (Unspecified)
system.cpu0.lsq0.loadToUse::110-119                35      0.00%     99.63% # Distribution of cycle latency between the first time a load is issued and its completion (Unspecified)
system.cpu0.lsq0.loadToUse::120-129                26      0.00%     99.63% # Distribution of cycle latency between the first time a load is issued and its completion (Unspecified)
system.cpu0.lsq0.loadToUse::130-139                44      0.00%     99.63% # Distribution of cycle latency between the first time a load is issued and its completion (Unspecified)
system.cpu0.lsq0.loadToUse::140-149                42      0.00%     99.63% # Distribution of cycle latency between the first time a load is issued and its completion (Unspecified)
system.cpu0.lsq0.loadToUse::150-159                52      0.00%     99.63% # Distribution of cycle latency between the first time a load is issued and its completion (Unspecified)
system.cpu0.lsq0.loadToUse::160-169                37      0.00%     99.63% # Distribution of cycle latency between the first time a load is issued and its completion (Unspecified)
system.cpu0.lsq0.loadToUse::170-179               103      0.00%     99.63% # Distribution of cycle latency between the first time a load is issued and its completion (Unspecified)
system.cpu0.lsq0.loadToUse::180-189               697      0.00%     99.64% # Distribution of cycle latency between the first time a load is issued and its completion (Unspecified)
system.cpu0.lsq0.loadToUse::190-199                27      0.00%     99.64% # Distribution of cycle latency between the first time a load is issued and its completion (Unspecified)
system.cpu0.lsq0.loadToUse::200-209                45      0.00%     99.64% # Distribution of cycle latency between the first time a load is issued and its completion (Unspecified)
system.cpu0.lsq0.loadToUse::210-219                57      0.00%     99.64% # Distribution of cycle latency between the first time a load is issued and its completion (Unspecified)
system.cpu0.lsq0.loadToUse::220-229                86      0.00%     99.64% # Distribution of cycle latency between the first time a load is issued and its completion (Unspecified)
system.cpu0.lsq0.loadToUse::230-239               161      0.00%     99.64% # Distribution of cycle latency between the first time a load is issued and its completion (Unspecified)
system.cpu0.lsq0.loadToUse::240-249               907      0.01%     99.65% # Distribution of cycle latency between the first time a load is issued and its completion (Unspecified)
system.cpu0.lsq0.loadToUse::250-259                57      0.00%     99.65% # Distribution of cycle latency between the first time a load is issued and its completion (Unspecified)
system.cpu0.lsq0.loadToUse::260-269                51      0.00%     99.65% # Distribution of cycle latency between the first time a load is issued and its completion (Unspecified)
system.cpu0.lsq0.loadToUse::270-279                94      0.00%     99.65% # Distribution of cycle latency between the first time a load is issued and its completion (Unspecified)
system.cpu0.lsq0.loadToUse::280-289               100      0.00%     99.65% # Distribution of cycle latency between the first time a load is issued and its completion (Unspecified)
system.cpu0.lsq0.loadToUse::290-299               285      0.00%     99.65% # Distribution of cycle latency between the first time a load is issued and its completion (Unspecified)
system.cpu0.lsq0.loadToUse::overflows           51290      0.35%    100.00% # Distribution of cycle latency between the first time a load is issued and its completion (Unspecified)
system.cpu0.lsq0.loadToUse::min_value               2                       # Distribution of cycle latency between the first time a load is issued and its completion (Unspecified)
system.cpu0.lsq0.loadToUse::max_value            2535                       # Distribution of cycle latency between the first time a load is issued and its completion (Unspecified)
system.cpu0.lsq0.loadToUse::total            14724271                       # Distribution of cycle latency between the first time a load is issued and its completion (Unspecified)
system.cpu0.mmu.dtb.rdAccesses               14852401                       # TLB accesses on read requests (Count)
system.cpu0.mmu.dtb.wrAccesses                9280681                       # TLB accesses on write requests (Count)
system.cpu0.mmu.dtb.rdMisses                     4200                       # TLB misses on read requests (Count)
system.cpu0.mmu.dtb.wrMisses                      878                       # TLB misses on write requests (Count)
system.cpu0.mmu.dtb.walker.power_state.pwrStateResidencyTicks::UNDEFINED  22694264000                       # Cumulative time (in ticks) in various power states (Tick)
system.cpu0.mmu.itb.rdAccesses                      0                       # TLB accesses on read requests (Count)
system.cpu0.mmu.itb.wrAccesses                8214927                       # TLB accesses on write requests (Count)
system.cpu0.mmu.itb.rdMisses                        0                       # TLB misses on read requests (Count)
system.cpu0.mmu.itb.wrMisses                     2891                       # TLB misses on write requests (Count)
system.cpu0.mmu.itb.walker.power_state.pwrStateResidencyTicks::UNDEFINED  22694264000                       # Cumulative time (in ticks) in various power states (Tick)
system.cpu0.power_state.pwrStateResidencyTicks::ON  22694264000                       # Cumulative time (in ticks) in various power states (Tick)
system.cpu0.rename.squashCycles                 20698                       # Number of cycles rename is squashing (Cycle)
system.cpu0.rename.idleCycles                 8827361                       # Number of cycles rename is idle (Cycle)
system.cpu0.rename.blockCycles                7541256                       # Number of cycles rename is blocking (Cycle)
system.cpu0.rename.serializeStallCycles         23249                       # count of cycles rename stalled for serializing inst (Cycle)
system.cpu0.rename.runCycles                 15400883                       # Number of cycles rename is running (Cycle)
system.cpu0.rename.unblockCycles             11391187                       # Number of cycles rename is unblocking (Cycle)
system.cpu0.rename.renamedInsts              91524288                       # Number of instructions processed by rename (Count)
system.cpu0.rename.ROBFullEvents                27021                       # Number of times rename has blocked due to ROB full (Count)
system.cpu0.rename.IQFullEvents                308081                       # Number of times rename has blocked due to IQ full (Count)
system.cpu0.rename.LQFullEvents                318084                       # Number of times rename has blocked due to LQ full (Count)
system.cpu0.rename.SQFullEvents              10684868                       # Number of times rename has blocked due to SQ full (Count)
system.cpu0.rename.fullRegistersEvents           2735                       # Number of times there has been no free registers (Count)
system.cpu0.rename.renamedOperands          119325423                       # Number of destination operands rename has renamed (Count)
system.cpu0.rename.lookups                  266778871                       # Number of register rename lookups that rename has made (Count)
system.cpu0.rename.intLookups               127423843                       # Number of integer rename lookups (Count)
system.cpu0.rename.fpLookups                   271991                       # Number of floating rename lookups (Count)
system.cpu0.rename.committedMaps            116751953                       # Number of HB maps that are committed (Count)
system.cpu0.rename.undoneMaps                 2573470                       # Number of HB maps that are undone due to squashing (Count)
system.cpu0.rename.serializing                   1116                       # count of serializing insts renamed (Count)
system.cpu0.rename.tempSerializing               1104                       # count of temporary serializing insts renamed (Count)
system.cpu0.rename.skidInsts                  1390268                       # count of insts added to the skid buffer (Count)
system.cpu0.rob.reads                       128588449                       # The number of ROB reads (Count)
system.cpu0.rob.writes                      182910379                       # The number of ROB writes (Count)
system.cpu0.thread_0.numInsts                48064640                       # Number of Instructions committed (Count)
system.cpu0.thread_0.numOps                  90147105                       # Number of Ops committed (Count)
system.cpu0.thread_0.numMemRefs                     0                       # Number of Memory References (Count)
system.cpu0.workload.numSyscalls                  188                       # Number of system calls (Count)
system.cpu1.numCycles                        45388529                       # Number of cpu cycles simulated (Cycle)
system.cpu1.numWorkItemsStarted                     0                       # Number of work items this cpu started (Count)
system.cpu1.numWorkItemsCompleted                   0                       # Number of work items this cpu completed (Count)
system.cpu1.instsAdded                       93228711                       # Number of instructions added to the IQ (excludes non-spec) (Count)
system.cpu1.nonSpecInstsAdded                    1759                       # Number of non-speculative instructions added to the IQ (Count)
system.cpu1.instsIssued                      92770849                       # Number of instructions issued (Count)
system.cpu1.squashedInstsIssued                  2783                       # Number of squashed instructions issued (Count)
system.cpu1.squashedInstsExamined             1241310                       # Number of squashed instructions iterated over during squash; mainly for profiling (Count)
system.cpu1.squashedOperandsExamined          2637991                       # Number of squashed operands that are examined and possibly removed from graph (Count)
system.cpu1.squashedNonSpecRemoved                140                       # Number of squashed non-spec instructions that were removed (Count)
system.cpu1.numIssuedDist::samples           43131640                       # Number of insts issued each cycle (Count)
system.cpu1.numIssuedDist::mean              2.150877                       # Number of insts issued each cycle (Count)
system.cpu1.numIssuedDist::stdev             2.347083                       # Number of insts issued each cycle (Count)
system.cpu1.numIssuedDist::underflows               0      0.00%      0.00% # Number of insts issued each cycle (Count)
system.cpu1.numIssuedDist::0                 19048018     44.16%     44.16% # Number of insts issued each cycle (Count)
system.cpu1.numIssuedDist::1                  2023261      4.69%     48.85% # Number of insts issued each cycle (Count)
system.cpu1.numIssuedDist::2                  4123685      9.56%     58.41% # Number of insts issued each cycle (Count)
system.cpu1.numIssuedDist::3                  5209979     12.08%     70.49% # Number of insts issued each cycle (Count)
system.cpu1.numIssuedDist::4                  4759456     11.03%     81.53% # Number of insts issued each cycle (Count)
system.cpu1.numIssuedDist::5                  3062709      7.10%     88.63% # Number of insts issued each cycle (Count)
system.cpu1.numIssuedDist::6                  2942782      6.82%     95.45% # Number of insts issued each cycle (Count)
system.cpu1.numIssuedDist::7                   831780      1.93%     97.38% # Number of insts issued each cycle (Count)
system.cpu1.numIssuedDist::8                  1129970      2.62%    100.00% # Number of insts issued each cycle (Count)
system.cpu1.numIssuedDist::overflows                0      0.00%    100.00% # Number of insts issued each cycle (Count)
system.cpu1.numIssuedDist::min_value                0                       # Number of insts issued each cycle (Count)
system.cpu1.numIssuedDist::max_value                8                       # Number of insts issued each cycle (Count)
system.cpu1.numIssuedDist::total             43131640                       # Number of insts issued each cycle (Count)
system.cpu1.statFuBusy::No_OpClass                  0      0.00%      0.00% # attempts to use FU when none available (Count)
system.cpu1.statFuBusy::IntAlu                 498818     66.84%     66.84% # attempts to use FU when none available (Count)
system.cpu1.statFuBusy::IntMult                     0      0.00%     66.84% # attempts to use FU when none available (Count)
system.cpu1.statFuBusy::IntDiv                      0      0.00%     66.84% # attempts to use FU when none available (Count)
system.cpu1.statFuBusy::FloatAdd                    0      0.00%     66.84% # attempts to use FU when none available (Count)
system.cpu1.statFuBusy::FloatCmp                    0      0.00%     66.84% # attempts to use FU when none available (Count)
system.cpu1.statFuBusy::FloatCvt                    0      0.00%     66.84% # attempts to use FU when none available (Count)
system.cpu1.statFuBusy::FloatMult                   0      0.00%     66.84% # attempts to use FU when none available (Count)
system.cpu1.statFuBusy::FloatMultAcc                0      0.00%     66.84% # attempts to use FU when none available (Count)
system.cpu1.statFuBusy::FloatDiv                    0      0.00%     66.84% # attempts to use FU when none available (Count)
system.cpu1.statFuBusy::FloatMisc                   0      0.00%     66.84% # attempts to use FU when none available (Count)
system.cpu1.statFuBusy::FloatSqrt                   0      0.00%     66.84% # attempts to use FU when none available (Count)
system.cpu1.statFuBusy::SimdAdd                     9      0.00%     66.84% # attempts to use FU when none available (Count)
system.cpu1.statFuBusy::SimdAddAcc                  0      0.00%     66.84% # attempts to use FU when none available (Count)
system.cpu1.statFuBusy::SimdAlu                   230      0.03%     66.87% # attempts to use FU when none available (Count)
system.cpu1.statFuBusy::SimdCmp                     0      0.00%     66.87% # attempts to use FU when none available (Count)
system.cpu1.statFuBusy::SimdCvt                   681      0.09%     66.96% # attempts to use FU when none available (Count)
system.cpu1.statFuBusy::SimdMisc                   21      0.00%     66.97% # attempts to use FU when none available (Count)
system.cpu1.statFuBusy::SimdMult                    0      0.00%     66.97% # attempts to use FU when none available (Count)
system.cpu1.statFuBusy::SimdMultAcc                 0      0.00%     66.97% # attempts to use FU when none available (Count)
system.cpu1.statFuBusy::SimdShift                 565      0.08%     67.04% # attempts to use FU when none available (Count)
system.cpu1.statFuBusy::SimdShiftAcc                0      0.00%     67.04% # attempts to use FU when none available (Count)
system.cpu1.statFuBusy::SimdDiv                     0      0.00%     67.04% # attempts to use FU when none available (Count)
system.cpu1.statFuBusy::SimdSqrt                    0      0.00%     67.04% # attempts to use FU when none available (Count)
system.cpu1.statFuBusy::SimdFloatAdd                0      0.00%     67.04% # attempts to use FU when none available (Count)
system.cpu1.statFuBusy::SimdFloatAlu                0      0.00%     67.04% # attempts to use FU when none available (Count)
system.cpu1.statFuBusy::SimdFloatCmp                0      0.00%     67.04% # attempts to use FU when none available (Count)
system.cpu1.statFuBusy::SimdFloatCvt                0      0.00%     67.04% # attempts to use FU when none available (Count)
system.cpu1.statFuBusy::SimdFloatDiv                0      0.00%     67.04% # attempts to use FU when none available (Count)
system.cpu1.statFuBusy::SimdFloatMisc               0      0.00%     67.04% # attempts to use FU when none available (Count)
system.cpu1.statFuBusy::SimdFloatMult               0      0.00%     67.04% # attempts to use FU when none available (Count)
system.cpu1.statFuBusy::SimdFloatMultAcc            0      0.00%     67.04% # attempts to use FU when none available (Count)
system.cpu1.statFuBusy::SimdFloatSqrt               0      0.00%     67.04% # attempts to use FU when none available (Count)
system.cpu1.statFuBusy::SimdReduceAdd               0      0.00%     67.04% # attempts to use FU when none available (Count)
system.cpu1.statFuBusy::SimdReduceAlu               0      0.00%     67.04% # attempts to use FU when none available (Count)
system.cpu1.statFuBusy::SimdReduceCmp               0      0.00%     67.04% # attempts to use FU when none available (Count)
system.cpu1.statFuBusy::SimdFloatReduceAdd            0      0.00%     67.04% # attempts to use FU when none available (Count)
system.cpu1.statFuBusy::SimdFloatReduceCmp            0      0.00%     67.04% # attempts to use FU when none available (Count)
system.cpu1.statFuBusy::SimdAes                     0      0.00%     67.04% # attempts to use FU when none available (Count)
system.cpu1.statFuBusy::SimdAesMix                  0      0.00%     67.04% # attempts to use FU when none available (Count)
system.cpu1.statFuBusy::SimdSha1Hash                0      0.00%     67.04% # attempts to use FU when none available (Count)
system.cpu1.statFuBusy::SimdSha1Hash2               0      0.00%     67.04% # attempts to use FU when none available (Count)
system.cpu1.statFuBusy::SimdSha256Hash              0      0.00%     67.04% # attempts to use FU when none available (Count)
system.cpu1.statFuBusy::SimdSha256Hash2             0      0.00%     67.04% # attempts to use FU when none available (Count)
system.cpu1.statFuBusy::SimdShaSigma2               0      0.00%     67.04% # attempts to use FU when none available (Count)
system.cpu1.statFuBusy::SimdShaSigma3               0      0.00%     67.04% # attempts to use FU when none available (Count)
system.cpu1.statFuBusy::SimdPredAlu                 0      0.00%     67.04% # attempts to use FU when none available (Count)
system.cpu1.statFuBusy::MemRead                 14842      1.99%     69.03% # attempts to use FU when none available (Count)
system.cpu1.statFuBusy::MemWrite               229658     30.77%     99.80% # attempts to use FU when none available (Count)
system.cpu1.statFuBusy::FloatMemRead             1069      0.14%     99.95% # attempts to use FU when none available (Count)
system.cpu1.statFuBusy::FloatMemWrite             390      0.05%    100.00% # attempts to use FU when none available (Count)
system.cpu1.statFuBusy::IprAccess                   0      0.00%    100.00% # attempts to use FU when none available (Count)
system.cpu1.statFuBusy::InstPrefetch                0      0.00%    100.00% # attempts to use FU when none available (Count)
system.cpu1.statIssuedInstType_0::No_OpClass      2668812      2.88%      2.88% # Number of instructions issued per FU type, per thread (Count)
system.cpu1.statIssuedInstType_0::IntAlu     65330785     70.42%     73.30% # Number of instructions issued per FU type, per thread (Count)
system.cpu1.statIssuedInstType_0::IntMult           62      0.00%     73.30% # Number of instructions issued per FU type, per thread (Count)
system.cpu1.statIssuedInstType_0::IntDiv        42937      0.05%     73.34% # Number of instructions issued per FU type, per thread (Count)
system.cpu1.statIssuedInstType_0::FloatAdd        10253      0.01%     73.36% # Number of instructions issued per FU type, per thread (Count)
system.cpu1.statIssuedInstType_0::FloatCmp            0      0.00%     73.36% # Number of instructions issued per FU type, per thread (Count)
system.cpu1.statIssuedInstType_0::FloatCvt         1868      0.00%     73.36% # Number of instructions issued per FU type, per thread (Count)
system.cpu1.statIssuedInstType_0::FloatMult            0      0.00%     73.36% # Number of instructions issued per FU type, per thread (Count)
system.cpu1.statIssuedInstType_0::FloatMultAcc            0      0.00%     73.36% # Number of instructions issued per FU type, per thread (Count)
system.cpu1.statIssuedInstType_0::FloatDiv            0      0.00%     73.36% # Number of instructions issued per FU type, per thread (Count)
system.cpu1.statIssuedInstType_0::FloatMisc            0      0.00%     73.36% # Number of instructions issued per FU type, per thread (Count)
system.cpu1.statIssuedInstType_0::FloatSqrt            0      0.00%     73.36% # Number of instructions issued per FU type, per thread (Count)
system.cpu1.statIssuedInstType_0::SimdAdd         9540      0.01%     73.37% # Number of instructions issued per FU type, per thread (Count)
system.cpu1.statIssuedInstType_0::SimdAddAcc            0      0.00%     73.37% # Number of instructions issued per FU type, per thread (Count)
system.cpu1.statIssuedInstType_0::SimdAlu        21513      0.02%     73.39% # Number of instructions issued per FU type, per thread (Count)
system.cpu1.statIssuedInstType_0::SimdCmp           12      0.00%     73.39% # Number of instructions issued per FU type, per thread (Count)
system.cpu1.statIssuedInstType_0::SimdCvt        21029      0.02%     73.41% # Number of instructions issued per FU type, per thread (Count)
system.cpu1.statIssuedInstType_0::SimdMisc        17810      0.02%     73.43% # Number of instructions issued per FU type, per thread (Count)
system.cpu1.statIssuedInstType_0::SimdMult            0      0.00%     73.43% # Number of instructions issued per FU type, per thread (Count)
system.cpu1.statIssuedInstType_0::SimdMultAcc            0      0.00%     73.43% # Number of instructions issued per FU type, per thread (Count)
system.cpu1.statIssuedInstType_0::SimdShift         6994      0.01%     73.44% # Number of instructions issued per FU type, per thread (Count)
system.cpu1.statIssuedInstType_0::SimdShiftAcc            0      0.00%     73.44% # Number of instructions issued per FU type, per thread (Count)
system.cpu1.statIssuedInstType_0::SimdDiv            0      0.00%     73.44% # Number of instructions issued per FU type, per thread (Count)
system.cpu1.statIssuedInstType_0::SimdSqrt            0      0.00%     73.44% # Number of instructions issued per FU type, per thread (Count)
system.cpu1.statIssuedInstType_0::SimdFloatAdd            9      0.00%     73.44% # Number of instructions issued per FU type, per thread (Count)
system.cpu1.statIssuedInstType_0::SimdFloatAlu            0      0.00%     73.44% # Number of instructions issued per FU type, per thread (Count)
system.cpu1.statIssuedInstType_0::SimdFloatCmp            0      0.00%     73.44% # Number of instructions issued per FU type, per thread (Count)
system.cpu1.statIssuedInstType_0::SimdFloatCvt           13      0.00%     73.44% # Number of instructions issued per FU type, per thread (Count)
system.cpu1.statIssuedInstType_0::SimdFloatDiv            1      0.00%     73.44% # Number of instructions issued per FU type, per thread (Count)
system.cpu1.statIssuedInstType_0::SimdFloatMisc            0      0.00%     73.44% # Number of instructions issued per FU type, per thread (Count)
system.cpu1.statIssuedInstType_0::SimdFloatMult            8      0.00%     73.44% # Number of instructions issued per FU type, per thread (Count)
system.cpu1.statIssuedInstType_0::SimdFloatMultAcc            0      0.00%     73.44% # Number of instructions issued per FU type, per thread (Count)
system.cpu1.statIssuedInstType_0::SimdFloatSqrt            0      0.00%     73.44% # Number of instructions issued per FU type, per thread (Count)
system.cpu1.statIssuedInstType_0::SimdReduceAdd            0      0.00%     73.44% # Number of instructions issued per FU type, per thread (Count)
system.cpu1.statIssuedInstType_0::SimdReduceAlu            0      0.00%     73.44% # Number of instructions issued per FU type, per thread (Count)
system.cpu1.statIssuedInstType_0::SimdReduceCmp            0      0.00%     73.44% # Number of instructions issued per FU type, per thread (Count)
system.cpu1.statIssuedInstType_0::SimdFloatReduceAdd            0      0.00%     73.44% # Number of instructions issued per FU type, per thread (Count)
system.cpu1.statIssuedInstType_0::SimdFloatReduceCmp            0      0.00%     73.44% # Number of instructions issued per FU type, per thread (Count)
system.cpu1.statIssuedInstType_0::SimdAes            0      0.00%     73.44% # Number of instructions issued per FU type, per thread (Count)
system.cpu1.statIssuedInstType_0::SimdAesMix            0      0.00%     73.44% # Number of instructions issued per FU type, per thread (Count)
system.cpu1.statIssuedInstType_0::SimdSha1Hash            0      0.00%     73.44% # Number of instructions issued per FU type, per thread (Count)
system.cpu1.statIssuedInstType_0::SimdSha1Hash2            0      0.00%     73.44% # Number of instructions issued per FU type, per thread (Count)
system.cpu1.statIssuedInstType_0::SimdSha256Hash            0      0.00%     73.44% # Number of instructions issued per FU type, per thread (Count)
system.cpu1.statIssuedInstType_0::SimdSha256Hash2            0      0.00%     73.44% # Number of instructions issued per FU type, per thread (Count)
system.cpu1.statIssuedInstType_0::SimdShaSigma2            0      0.00%     73.44% # Number of instructions issued per FU type, per thread (Count)
system.cpu1.statIssuedInstType_0::SimdShaSigma3            0      0.00%     73.44% # Number of instructions issued per FU type, per thread (Count)
system.cpu1.statIssuedInstType_0::SimdPredAlu            0      0.00%     73.44% # Number of instructions issued per FU type, per thread (Count)
system.cpu1.statIssuedInstType_0::MemRead     15129685     16.31%     89.75% # Number of instructions issued per FU type, per thread (Count)
system.cpu1.statIssuedInstType_0::MemWrite      9458245     10.20%     99.94% # Number of instructions issued per FU type, per thread (Count)
system.cpu1.statIssuedInstType_0::FloatMemRead        32779      0.04%     99.98% # Number of instructions issued per FU type, per thread (Count)
system.cpu1.statIssuedInstType_0::FloatMemWrite        18494      0.02%    100.00% # Number of instructions issued per FU type, per thread (Count)
system.cpu1.statIssuedInstType_0::IprAccess            0      0.00%    100.00% # Number of instructions issued per FU type, per thread (Count)
system.cpu1.statIssuedInstType_0::InstPrefetch            0      0.00%    100.00% # Number of instructions issued per FU type, per thread (Count)
system.cpu1.statIssuedInstType_0::total      92770849                       # Number of instructions issued per FU type, per thread (Count)
system.cpu1.issueRate                        2.043927                       # Inst issue rate ((Count/Cycle))
system.cpu1.fuBusy                             746283                       # FU busy when requested (Count)
system.cpu1.fuBusyRate                       0.008044                       # FU busy rate (busy events/executed inst) ((Count/Count))
system.cpu1.intInstQueueReads               229125354                       # Number of integer instruction queue reads (Count)
system.cpu1.intInstQueueWrites               94240924                       # Number of integer instruction queue writes (Count)
system.cpu1.intInstQueueWakeupAccesses       92561317                       # Number of integer instruction queue wakeup accesses (Count)
system.cpu1.fpInstQueueReads                   297045                       # Number of floating instruction queue reads (Count)
system.cpu1.fpInstQueueWrites                  231602                       # Number of floating instruction queue writes (Count)
system.cpu1.fpInstQueueWakeupAccesses          140007                       # Number of floating instruction queue wakeup accesses (Count)
system.cpu1.vecInstQueueReads                       0                       # Number of vector instruction queue reads (Count)
system.cpu1.vecInstQueueWrites                      0                       # Number of vector instruction queue writes (Count)
system.cpu1.vecInstQueueWakeupAccesses              0                       # Number of vector instruction queue wakeup accesses (Count)
system.cpu1.intAluAccesses                   90698598                       # Number of integer alu accesses (Count)
system.cpu1.fpAluAccesses                      149722                       # Number of floating point alu accesses (Count)
system.cpu1.vecAluAccesses                          0                       # Number of vector alu accesses (Count)
system.cpu1.numInsts                         92734529                       # Number of executed instructions (Count)
system.cpu1.numLoadInsts                     15154396                       # Number of load instructions executed (Count)
system.cpu1.numSquashedInsts                    36315                       # Number of squashed instructions skipped in execute (Count)
system.cpu1.numSwp                                  0                       # Number of swp insts executed (Count)
system.cpu1.numNop                                  0                       # Number of nop insts executed (Count)
system.cpu1.numRefs                          24628016                       # Number of memory reference insts executed (Count)
system.cpu1.numBranches                       8530531                       # Number of branches executed (Count)
[...]
system.ruby.network.ext_out_link_utilization      9458578                       (Unspecified)
system.ruby.network.flit_network_latency |276078425500                       |443190270500                       | 41639511500                       (Unspecified)
system.ruby.network.flit_queueing_latency |  4147459500                       |  3717914000                       |   282776000                       (Unspecified)
system.ruby.network.flits_injected       |     2766467     29.25%     29.25% |     6126573     64.77%     94.02% |      565555      5.98%    100.00% (Unspecified)
system.ruby.network.flits_injected::total      9458595                       (Unspecified)
system.ruby.network.flits_received       |     2766458     29.25%     29.25% |     6126561     64.77%     94.02% |      565552      5.98%    100.00% (Unspecified)
system.ruby.network.flits_received::total      9458571                       (Unspecified)
system.ruby.network.int_link_utilization     24828668                       (Unspecified)
system.ruby.network.packet_network_latency |150366195000                       |143713749500                       | 41639511500                       (Unspecified)
system.ruby.network.packet_queueing_latency |  2826193500                       |   975028000                       |   282776000                       (Unspecified)
system.ruby.network.packets_injected     |     1671247     42.76%     42.76% |     1671241     42.76%     85.53% |      565555     14.47%    100.00% (Unspecified)
system.ruby.network.packets_injected::total      3908043                       (Unspecified)
system.ruby.network.packets_received     |     1671244     42.76%     42.76% |     1671237     42.76%     85.53% |      565552     14.47%    100.00% (Unspecified)
system.ruby.network.packets_received::total      3908033                       (Unspecified)
system.ruby.network.routers00.Var_1                 3                       (Unspecified)
system.ruby.network.routers00.Var_2              3260                       (Unspecified)
system.ruby.network.routers00.Var_3              9189                       (Unspecified)
system.ruby.network.routers00.all_counts       109629                       (Unspecified)
system.ruby.network.routers00.buffer_reads      1506414                       (Unspecified)
system.ruby.network.routers00.buffer_writes      1506414                       (Unspecified)
system.ruby.network.routers00.crossbar_activity      1506414                       (Unspecified)
system.ruby.network.routers00.detour_counts         9234                       (Unspecified)
system.ruby.network.routers00.regular_var            1                       (Unspecified)
system.ruby.network.routers00.risk_counts         9235                       (Unspecified)
system.ruby.network.routers00.sw_input_arbiter_activity      1513444                       (Unspecified)
system.ruby.network.routers00.sw_output_arbiter_activity      1506414                       (Unspecified)
system.ruby.network.routers01.Var_1                 3                       (Unspecified)
system.ruby.network.routers01.Var_2              3313                       (Unspecified)
system.ruby.network.routers01.Var_3             12373                       (Unspecified)
system.ruby.network.routers01.all_counts       110523                       (Unspecified)
system.ruby.network.routers01.buffer_reads      2135349                       (Unspecified)
system.ruby.network.routers01.buffer_writes      2135349                       (Unspecified)
system.ruby.network.routers01.crossbar_activity      2135349                       (Unspecified)
system.ruby.network.routers01.detour_counts        12448                       (Unspecified)
system.ruby.network.routers01.regular_var            0                       (Unspecified)
system.ruby.network.routers01.risk_counts        12449                       (Unspecified)
system.ruby.network.routers01.sw_input_arbiter_activity      2151550                       (Unspecified)
system.ruby.network.routers01.sw_output_arbiter_activity      2135349                       (Unspecified)
system.ruby.network.routers02.Var_1                 2                       (Unspecified)
system.ruby.network.routers02.Var_2              3353                       (Unspecified)
system.ruby.network.routers02.Var_3             12096                       (Unspecified)
system.ruby.network.routers02.all_counts       110414                       (Unspecified)
system.ruby.network.routers02.buffer_reads      2125592                       (Unspecified)
system.ruby.network.routers02.buffer_writes      2125592                       (Unspecified)
system.ruby.network.routers02.crossbar_activity      2125592                       (Unspecified)
system.ruby.network.routers02.detour_counts        12163                       (Unspecified)
system.ruby.network.routers02.regular_var            0                       (Unspecified)
system.ruby.network.routers02.risk_counts        12165                       (Unspecified)
system.ruby.network.routers02.sw_input_arbiter_activity      2141001                       (Unspecified)
system.ruby.network.routers02.sw_output_arbiter_activity      2125592                       (Unspecified)
system.ruby.network.routers03.Var_1                 5                       (Unspecified)
system.ruby.network.routers03.Var_2              3334                       (Unspecified)
system.ruby.network.routers03.Var_3              8434                       (Unspecified)
system.ruby.network.routers03.all_counts       109542                       (Unspecified)
system.ruby.network.routers03.buffer_reads      1484074                       (Unspecified)
system.ruby.network.routers03.buffer_writes      1484074                       (Unspecified)
system.ruby.network.routers03.crossbar_activity      1484074                       (Unspecified)
system.ruby.network.routers03.detour_counts         8463                       (Unspecified)
system.ruby.network.routers03.regular_var            0                       (Unspecified)
system.ruby.network.routers03.risk_counts         8465                       (Unspecified)
system.ruby.network.routers03.sw_input_arbiter_activity      1491031                       (Unspecified)
system.ruby.network.routers03.sw_output_arbiter_activity      1484074                       (Unspecified)
system.ruby.network.routers04.Var_1                 3                       (Unspecified)
system.ruby.network.routers04.Var_2              3502                       (Unspecified)
system.ruby.network.routers04.Var_3             21282                       (Unspecified)
system.ruby.network.routers04.all_counts       110799                       (Unspecified)
system.ruby.network.routers04.buffer_reads      2129022                       (Unspecified)
system.ruby.network.routers04.buffer_writes      2129022                       (Unspecified)
system.ruby.network.routers04.crossbar_activity      2129022                       (Unspecified)
system.ruby.network.routers04.detour_counts        21309                       (Unspecified)
system.ruby.network.routers04.regular_var            0                       (Unspecified)
system.ruby.network.routers04.risk_counts        21313                       (Unspecified)
system.ruby.network.routers04.sw_input_arbiter_activity      2144243                       (Unspecified)
system.ruby.network.routers04.sw_output_arbiter_activity      2129022                       (Unspecified)
system.ruby.network.routers05.Var_1                 9                       (Unspecified)
system.ruby.network.routers05.Var_2              3494                       (Unspecified)
system.ruby.network.routers05.Var_3             22547                       (Unspecified)
system.ruby.network.routers05.all_counts       112074                       (Unspecified)
system.ruby.network.routers05.buffer_reads      2803072                       (Unspecified)
system.ruby.network.routers05.buffer_writes      2803072                       (Unspecified)
system.ruby.network.routers05.crossbar_activity      2803072                       (Unspecified)
system.ruby.network.routers05.detour_counts        22610                       (Unspecified)
system.ruby.network.routers05.regular_var            0                       (Unspecified)
system.ruby.network.routers05.risk_counts        22611                       (Unspecified)
system.ruby.network.routers05.sw_input_arbiter_activity      2827264                       (Unspecified)
system.ruby.network.routers05.sw_output_arbiter_activity      2803072                       (Unspecified)
system.ruby.network.routers06.Var_1                 2                       (Unspecified)
system.ruby.network.routers06.Var_2              3364                       (Unspecified)
system.ruby.network.routers06.Var_3             22956                       (Unspecified)
system.ruby.network.routers06.all_counts       111172                       (Unspecified)
system.ruby.network.routers06.buffer_reads      2794748                       (Unspecified)
system.ruby.network.routers06.buffer_writes      2794748                       (Unspecified)
system.ruby.network.routers06.crossbar_activity      2794748                       (Unspecified)
system.ruby.network.routers06.detour_counts        23025                       (Unspecified)
system.ruby.network.routers06.regular_var            0                       (Unspecified)
system.ruby.network.routers06.risk_counts        23029                       (Unspecified)
system.ruby.network.routers06.sw_input_arbiter_activity      2818815                       (Unspecified)
system.ruby.network.routers06.sw_output_arbiter_activity      2794748                       (Unspecified)
system.ruby.network.routers07.Var_1                 3                       (Unspecified)
system.ruby.network.routers07.Var_2              3329                       (Unspecified)
system.ruby.network.routers07.Var_3             20636                       (Unspecified)
system.ruby.network.routers07.all_counts       109869                       (Unspecified)
system.ruby.network.routers07.buffer_reads      2105291                       (Unspecified)
system.ruby.network.routers07.buffer_writes      2105291                       (Unspecified)
system.ruby.network.routers07.crossbar_activity      2105291                       (Unspecified)
system.ruby.network.routers07.detour_counts        20671                       (Unspecified)
system.ruby.network.routers07.regular_var            0                       (Unspecified)
system.ruby.network.routers07.risk_counts        20672                       (Unspecified)
system.ruby.network.routers07.sw_input_arbiter_activity      2120190                       (Unspecified)
system.ruby.network.routers07.sw_output_arbiter_activity      2105291                       (Unspecified)
system.ruby.network.routers08.Var_1                 5                       (Unspecified)
system.ruby.network.routers08.Var_2              3515                       (Unspecified)
system.ruby.network.routers08.Var_3             21476                       (Unspecified)
system.ruby.network.routers08.all_counts       111081                       (Unspecified)
system.ruby.network.routers08.buffer_reads      2135390                       (Unspecified)
system.ruby.network.routers08.buffer_writes      2135390                       (Unspecified)
system.ruby.network.routers08.crossbar_activity      2135390                       (Unspecified)
system.ruby.network.routers08.detour_counts        21496                       (Unspecified)
system.ruby.network.routers08.regular_var            0                       (Unspecified)
system.ruby.network.routers08.risk_counts        21498                       (Unspecified)
system.ruby.network.routers08.sw_input_arbiter_activity      2150205                       (Unspecified)
system.ruby.network.routers08.sw_output_arbiter_activity      2135390                       (Unspecified)
system.ruby.network.routers09.Var_1                 5                       (Unspecified)
system.ruby.network.routers09.Var_2              3319                       (Unspecified)
system.ruby.network.routers09.Var_3             24017                       (Unspecified)
system.ruby.network.routers09.all_counts       111929                       (Unspecified)
system.ruby.network.routers09.buffer_reads      2798309                       (Unspecified)
system.ruby.network.routers09.buffer_writes      2798309                       (Unspecified)
system.ruby.network.routers09.crossbar_activity      2798308                       (Unspecified)
system.ruby.network.routers09.detour_counts        24059                       (Unspecified)
system.ruby.network.routers09.regular_var            0                       (Unspecified)
system.ruby.network.routers09.risk_counts        24061                       (Unspecified)
system.ruby.network.routers09.sw_input_arbiter_activity      2822922                       (Unspecified)
system.ruby.network.routers09.sw_output_arbiter_activity      2798308                       (Unspecified)
system.ruby.network.routers10.Var_1                 3                       (Unspecified)
system.ruby.network.routers10.Var_2              3286                       (Unspecified)
system.ruby.network.routers10.Var_3             23042                       (Unspecified)
system.ruby.network.routers10.all_counts       112081                       (Unspecified)
system.ruby.network.routers10.buffer_reads      2789903                       (Unspecified)
system.ruby.network.routers10.buffer_writes      2789903                       (Unspecified)
system.ruby.network.routers10.crossbar_activity      2789903                       (Unspecified)
system.ruby.network.routers10.detour_counts        23118                       (Unspecified)
system.ruby.network.routers10.regular_var            0                       (Unspecified)
system.ruby.network.routers10.risk_counts        23121                       (Unspecified)
system.ruby.network.routers10.sw_input_arbiter_activity      2813491                       (Unspecified)
system.ruby.network.routers10.sw_output_arbiter_activity      2789903                       (Unspecified)
system.ruby.network.routers11.Var_1                 2                       (Unspecified)
system.ruby.network.routers11.Var_2              3344                       (Unspecified)
system.ruby.network.routers11.Var_3             20475                       (Unspecified)
system.ruby.network.routers11.all_counts       110696                       (Unspecified)
system.ruby.network.routers11.buffer_reads      2116464                       (Unspecified)
system.ruby.network.routers11.buffer_writes      2116464                       (Unspecified)
system.ruby.network.routers11.crossbar_activity      2116464                       (Unspecified)
system.ruby.network.routers11.detour_counts        20516                       (Unspecified)
system.ruby.network.routers11.regular_var            0                       (Unspecified)
system.ruby.network.routers11.risk_counts        20518                       (Unspecified)
system.ruby.network.routers11.sw_input_arbiter_activity      2131304                       (Unspecified)
system.ruby.network.routers11.sw_output_arbiter_activity      2116464                       (Unspecified)
system.ruby.network.routers12.Var_1                 2                       (Unspecified)
system.ruby.network.routers12.Var_2              3456                       (Unspecified)
system.ruby.network.routers12.Var_3              8509                       (Unspecified)
system.ruby.network.routers12.all_counts       110477                       (Unspecified)
system.ruby.network.routers12.buffer_reads      1552478                       (Unspecified)
system.ruby.network.routers12.buffer_writes      1552478                       (Unspecified)
system.ruby.network.routers12.crossbar_activity      1552478                       (Unspecified)
system.ruby.network.routers12.detour_counts         8557                       (Unspecified)
system.ruby.network.routers12.regular_var            0                       (Unspecified)
system.ruby.network.routers12.risk_counts         8559                       (Unspecified)
system.ruby.network.routers12.sw_input_arbiter_activity      1559785                       (Unspecified)
system.ruby.network.routers12.sw_output_arbiter_activity      1552478                       (Unspecified)
system.ruby.network.routers13.Var_1                10                       (Unspecified)
system.ruby.network.routers13.Var_2              3474                       (Unspecified)
system.ruby.network.routers13.Var_3             12539                       (Unspecified)
system.ruby.network.routers13.all_counts       111240                       (Unspecified)
system.ruby.network.routers13.buffer_reads      2165298                       (Unspecified)
system.ruby.network.routers13.buffer_writes      2165298                       (Unspecified)
system.ruby.network.routers13.crossbar_activity      2165298                       (Unspecified)
system.ruby.network.routers13.detour_counts        12603                       (Unspecified)
system.ruby.network.routers13.regular_var            0                       (Unspecified)
system.ruby.network.routers13.risk_counts        12603                       (Unspecified)
system.ruby.network.routers13.sw_input_arbiter_activity      2182085                       (Unspecified)
system.ruby.network.routers13.sw_output_arbiter_activity      2165298                       (Unspecified)
system.ruby.network.routers14.Var_1                 3                       (Unspecified)
system.ruby.network.routers14.Var_2              3307                       (Unspecified)
system.ruby.network.routers14.Var_3             14282                       (Unspecified)
system.ruby.network.routers14.all_counts       110772                       (Unspecified)
system.ruby.network.routers14.buffer_reads      2145045                       (Unspecified)
system.ruby.network.routers14.buffer_writes      2145045                       (Unspecified)
system.ruby.network.routers14.crossbar_activity      2145045                       (Unspecified)
system.ruby.network.routers14.detour_counts        14359                       (Unspecified)
system.ruby.network.routers14.regular_var            0                       (Unspecified)
system.ruby.network.routers14.risk_counts        14360                       (Unspecified)
system.ruby.network.routers14.sw_input_arbiter_activity      2160386                       (Unspecified)
system.ruby.network.routers14.sw_output_arbiter_activity      2145045                       (Unspecified)
system.ruby.network.routers15.Var_1                 1                       (Unspecified)
system.ruby.network.routers15.Var_2              3322                       (Unspecified)
system.ruby.network.routers15.Var_3              8250                       (Unspecified)
system.ruby.network.routers15.all_counts       109867                       (Unspecified)
system.ruby.network.routers15.buffer_reads      1500799                       (Unspecified)
system.ruby.network.routers15.buffer_writes      1500799                       (Unspecified)
system.ruby.network.routers15.crossbar_activity      1500799                       (Unspecified)
system.ruby.network.routers15.detour_counts         8301                       (Unspecified)
system.ruby.network.routers15.regular_var            0                       (Unspecified)
system.ruby.network.routers15.risk_counts         8302                       (Unspecified)
system.ruby.network.routers15.sw_input_arbiter_activity      1508025                       (Unspecified)
system.ruby.network.routers15.sw_output_arbiter_activity      1500799                       (Unspecified)

---------- End Simulation Statistics   ----------
