
---------- Begin Simulation Statistics ----------
simSeconds                                   0.024413                       # Number of seconds simulated (Second)
simTicks                                  24413428500                       # Number of ticks simulated (Tick)
finalTick                                 24413428500                       # Number of ticks from beginning of simulation (restored from checkpoints and never reset) (Tick)
simFreq                                  1000000000000                       # The number of ticks per simulated second ((Tick/Second))
hostSeconds                                   4509.24                       # Real time elapsed on the host (Second)
hostTickRate                                  5414090                       # The number of ticks simulated per host second (ticks/s) ((Tick/Second))
hostMemory                                   12139552                       # Number of bytes of host memory used (Byte)
simInsts                                    749200985                       # Number of instructions simulated (Count)
simOps                                     1311277823                       # Number of ops (including micro ops) simulated (Count)
hostInstRate                                   166148                       # Simulator instruction rate (inst/s) ((Count/Second))
hostOpRate                                     290798                       # Simulator op (including micro ops) rate (op/s) ((Count/Second))
system.clk_domain.clock                          1000                       # Clock period in ticks (Tick)
system.cpu0.numCycles                        48826858                       # Number of cpu cycles simulated (Cycle)
system.cpu0.numWorkItemsStarted                     0                       # Number of work items this cpu started (Count)
system.cpu0.numWorkItemsCompleted                   0                       # Number of work items this cpu completed (Count)
system.cpu0.instsAdded                       76248722                       # Number of instructions added to the IQ (excludes non-spec) (Count)
system.cpu0.nonSpecInstsAdded                    1230                       # Number of non-speculative instructions added to the IQ (Count)
system.cpu0.instsIssued                      75842430                       # Number of instructions issued (Count)
system.cpu0.squashedInstsIssued                  2238                       # Number of squashed instructions issued (Count)
system.cpu0.squashedInstsExamined             1784961                       # Number of squashed instructions iterated over during squash; mainly for profiling (Count)
system.cpu0.squashedOperandsExamined          2470889                       # Number of squashed operands that are examined and possibly removed from graph (Count)
system.cpu0.squashedNonSpecRemoved                101                       # Number of squashed non-spec instructions that were removed (Count)
system.cpu0.numIssuedDist::samples           47382408                       # Number of insts issued each cycle (Count)
system.cpu0.numIssuedDist::mean              1.600645                       # Number of insts issued each cycle (Count)
system.cpu0.numIssuedDist::stdev             2.380207                       # Number of insts issued each cycle (Count)
system.cpu0.numIssuedDist::underflows               0      0.00%      0.00% # Number of insts issued each cycle (Count)
system.cpu0.numIssuedDist::0                 29396045     62.04%     62.04% # Number of insts issued each cycle (Count)
system.cpu0.numIssuedDist::1                  1819879      3.84%     65.88% # Number of insts issued each cycle (Count)
system.cpu0.numIssuedDist::2                  2508922      5.30%     71.18% # Number of insts issued each cycle (Count)
system.cpu0.numIssuedDist::3                  2262117      4.77%     75.95% # Number of insts issued each cycle (Count)
system.cpu0.numIssuedDist::4                  3060210      6.46%     82.41% # Number of insts issued each cycle (Count)
system.cpu0.numIssuedDist::5                  3439996      7.26%     89.67% # Number of insts issued each cycle (Count)
system.cpu0.numIssuedDist::6                  2564476      5.41%     95.08% # Number of insts issued each cycle (Count)
system.cpu0.numIssuedDist::7                  1255424      2.65%     97.73% # Number of insts issued each cycle (Count)
system.cpu0.numIssuedDist::8                  1075339      2.27%    100.00% # Number of insts issued each cycle (Count)
system.cpu0.numIssuedDist::overflows                0      0.00%    100.00% # Number of insts issued each cycle (Count)
system.cpu0.numIssuedDist::min_value                0                       # Number of insts issued each cycle (Count)
system.cpu0.numIssuedDist::max_value                8                       # Number of insts issued each cycle (Count)
system.cpu0.numIssuedDist::total             47382408                       # Number of insts issued each cycle (Count)
system.cpu0.statFuBusy::No_OpClass                  0      0.00%      0.00% # attempts to use FU when none available (Count)
system.cpu0.statFuBusy::IntAlu                 649188     40.04%     40.04% # attempts to use FU when none available (Count)
system.cpu0.statFuBusy::IntMult                     0      0.00%     40.04% # attempts to use FU when none available (Count)
system.cpu0.statFuBusy::IntDiv                      0      0.00%     40.04% # attempts to use FU when none available (Count)
system.cpu0.statFuBusy::FloatAdd                    0      0.00%     40.04% # attempts to use FU when none available (Count)
system.cpu0.statFuBusy::FloatCmp                    0      0.00%     40.04% # attempts to use FU when none available (Count)
system.cpu0.statFuBusy::FloatCvt                    0      0.00%     40.04% # attempts to use FU when none available (Count)
system.cpu0.statFuBusy::FloatMult                   0      0.00%     40.04% # attempts to use FU when none available (Count)
system.cpu0.statFuBusy::FloatMultAcc                0      0.00%     40.04% # attempts to use FU when none available (Count)
system.cpu0.statFuBusy::FloatDiv                    0      0.00%     40.04% # attempts to use FU when none available (Count)
system.cpu0.statFuBusy::FloatMisc                   0      0.00%     40.04% # attempts to use FU when none available (Count)
system.cpu0.statFuBusy::FloatSqrt                   0      0.00%     40.04% # attempts to use FU when none available (Count)
system.cpu0.statFuBusy::SimdAdd                    12      0.00%     40.04% # attempts to use FU when none available (Count)
system.cpu0.statFuBusy::SimdAddAcc                  0      0.00%     40.04% # attempts to use FU when none available (Count)
system.cpu0.statFuBusy::SimdAlu                   117      0.01%     40.05% # attempts to use FU when none available (Count)
system.cpu0.statFuBusy::SimdCmp                     0      0.00%     40.05% # attempts to use FU when none available (Count)
system.cpu0.statFuBusy::SimdCvt                   239      0.01%     40.07% # attempts to use FU when none available (Count)
system.cpu0.statFuBusy::SimdMisc                   23      0.00%     40.07% # attempts to use FU when none available (Count)
system.cpu0.statFuBusy::SimdMult                    0      0.00%     40.07% # attempts to use FU when none available (Count)
system.cpu0.statFuBusy::SimdMultAcc                 0      0.00%     40.07% # attempts to use FU when none available (Count)
system.cpu0.statFuBusy::SimdShift                 146      0.01%     40.08% # attempts to use FU when none available (Count)
system.cpu0.statFuBusy::SimdShiftAcc                0      0.00%     40.08% # attempts to use FU when none available (Count)
system.cpu0.statFuBusy::SimdDiv                     0      0.00%     40.08% # attempts to use FU when none available (Count)
system.cpu0.statFuBusy::SimdSqrt                    0      0.00%     40.08% # attempts to use FU when none available (Count)
system.cpu0.statFuBusy::SimdFloatAdd                0      0.00%     40.08% # attempts to use FU when none available (Count)
system.cpu0.statFuBusy::SimdFloatAlu                0      0.00%     40.08% # attempts to use FU when none available (Count)
system.cpu0.statFuBusy::SimdFloatCmp                0      0.00%     40.08% # attempts to use FU when none available (Count)
system.cpu0.statFuBusy::SimdFloatCvt                0      0.00%     40.08% # attempts to use FU when none available (Count)
system.cpu0.statFuBusy::SimdFloatDiv                0      0.00%     40.08% # attempts to use FU when none available (Count)
system.cpu0.statFuBusy::SimdFloatMisc               0      0.00%     40.08% # attempts to use FU when none available (Count)
system.cpu0.statFuBusy::SimdFloatMult               0      0.00%     40.08% # attempts to use FU when none available (Count)
system.cpu0.statFuBusy::SimdFloatMultAcc            0      0.00%     40.08% # attempts to use FU when none available (Count)
system.cpu0.statFuBusy::SimdFloatSqrt               0      0.00%     40.08% # attempts to use FU when none available (Count)
system.cpu0.statFuBusy::SimdReduceAdd               0      0.00%     40.08% # attempts to use FU when none available (Count)
system.cpu0.statFuBusy::SimdReduceAlu               0      0.00%     40.08% # attempts to use FU when none available (Count)
system.cpu0.statFuBusy::SimdReduceCmp               0      0.00%     40.08% # attempts to use FU when none available (Count)
system.cpu0.statFuBusy::SimdFloatReduceAdd            0      0.00%     40.08% # attempts to use FU when none available (Count)
system.cpu0.statFuBusy::SimdFloatReduceCmp            0      0.00%     40.08% # attempts to use FU when none available (Count)
system.cpu0.statFuBusy::SimdAes                     0      0.00%     40.08% # attempts to use FU when none available (Count)
system.cpu0.statFuBusy::SimdAesMix                  0      0.00%     40.08% # attempts to use FU when none available (Count)
system.cpu0.statFuBusy::SimdSha1Hash                0      0.00%     40.08% # attempts to use FU when none available (Count)
system.cpu0.statFuBusy::SimdSha1Hash2               0      0.00%     40.08% # attempts to use FU when none available (Count)
system.cpu0.statFuBusy::SimdSha256Hash              0      0.00%     40.08% # attempts to use FU when none available (Count)
system.cpu0.statFuBusy::SimdSha256Hash2             0      0.00%     40.08% # attempts to use FU when none available (Count)
system.cpu0.statFuBusy::SimdShaSigma2               0      0.00%     40.08% # attempts to use FU when none available (Count)
system.cpu0.statFuBusy::SimdShaSigma3               0      0.00%     40.08% # attempts to use FU when none available (Count)
system.cpu0.statFuBusy::SimdPredAlu                 0      0.00%     40.08% # attempts to use FU when none available (Count)
system.cpu0.statFuBusy::MemRead                957703     59.07%     99.15% # attempts to use FU when none available (Count)
system.cpu0.statFuBusy::MemWrite                12775      0.79%     99.94% # attempts to use FU when none available (Count)
system.cpu0.statFuBusy::FloatMemRead              720      0.04%     99.98% # attempts to use FU when none available (Count)
system.cpu0.statFuBusy::FloatMemWrite             332      0.02%    100.00% # attempts to use FU when none available (Count)
system.cpu0.statFuBusy::IprAccess                   0      0.00%    100.00% # attempts to use FU when none available (Count)
system.cpu0.statFuBusy::InstPrefetch                0      0.00%    100.00% # attempts to use FU when none available (Count)
system.cpu0.statIssuedInstType_0::No_OpClass        27736      0.04%      0.04% # Number of instructions issued per FU type, per thread (Count)
system.cpu0.statIssuedInstType_0::IntAlu     51227426     67.54%     67.58% # Number of instructions issued per FU type, per thread (Count)
system.cpu0.statIssuedInstType_0::IntMult        35718      0.05%     67.63% # Number of instructions issued per FU type, per thread (Count)
system.cpu0.statIssuedInstType_0::IntDiv        39960      0.05%     67.68% # Number of instructions issued per FU type, per thread (Count)
system.cpu0.statIssuedInstType_0::FloatAdd         8655      0.01%     67.69% # Number of instructions issued per FU type, per thread (Count)
system.cpu0.statIssuedInstType_0::FloatCmp            0      0.00%     67.69% # Number of instructions issued per FU type, per thread (Count)
system.cpu0.statIssuedInstType_0::FloatCvt         1712      0.00%     67.69% # Number of instructions issued per FU type, per thread (Count)
system.cpu0.statIssuedInstType_0::FloatMult            0      0.00%     67.69% # Number of instructions issued per FU type, per thread (Count)
system.cpu0.statIssuedInstType_0::FloatMultAcc            0      0.00%     67.69% # Number of instructions issued per FU type, per thread (Count)
system.cpu0.statIssuedInstType_0::FloatDiv            0      0.00%     67.69% # Number of instructions issued per FU type, per thread (Count)
system.cpu0.statIssuedInstType_0::FloatMisc            0      0.00%     67.69% # Number of instructions issued per FU type, per thread (Count)
system.cpu0.statIssuedInstType_0::FloatSqrt            0      0.00%     67.69% # Number of instructions issued per FU type, per thread (Count)
system.cpu0.statIssuedInstType_0::SimdAdd         7053      0.01%     67.70% # Number of instructions issued per FU type, per thread (Count)
system.cpu0.statIssuedInstType_0::SimdAddAcc            0      0.00%     67.70% # Number of instructions issued per FU type, per thread (Count)
system.cpu0.statIssuedInstType_0::SimdAlu        15338      0.02%     67.72% # Number of instructions issued per FU type, per thread (Count)
system.cpu0.statIssuedInstType_0::SimdCmp           12      0.00%     67.72% # Number of instructions issued per FU type, per thread (Count)
system.cpu0.statIssuedInstType_0::SimdCvt        14996      0.02%     67.74% # Number of instructions issued per FU type, per thread (Count)
system.cpu0.statIssuedInstType_0::SimdMisc        14679      0.02%     67.76% # Number of instructions issued per FU type, per thread (Count)
system.cpu0.statIssuedInstType_0::SimdMult            0      0.00%     67.76% # Number of instructions issued per FU type, per thread (Count)
system.cpu0.statIssuedInstType_0::SimdMultAcc            0      0.00%     67.76% # Number of instructions issued per FU type, per thread (Count)
system.cpu0.statIssuedInstType_0::SimdShift         2263      0.00%     67.77% # Number of instructions issued per FU type, per thread (Count)
system.cpu0.statIssuedInstType_0::SimdShiftAcc            0      0.00%     67.77% # Number of instructions issued per FU type, per thread (Count)
system.cpu0.statIssuedInstType_0::SimdDiv            0      0.00%     67.77% # Number of instructions issued per FU type, per thread (Count)
system.cpu0.statIssuedInstType_0::SimdSqrt            0      0.00%     67.77% # Number of instructions issued per FU type, per thread (Count)
system.cpu0.statIssuedInstType_0::SimdFloatAdd           44      0.00%     67.77% # Number of instructions issued per FU type, per thread (Count)
system.cpu0.statIssuedInstType_0::SimdFloatAlu            0      0.00%     67.77% # Number of instructions issued per FU type, per thread (Count)
system.cpu0.statIssuedInstType_0::SimdFloatCmp            0      0.00%     67.77% # Number of instructions issued per FU type, per thread (Count)
system.cpu0.statIssuedInstType_0::SimdFloatCvt           55      0.00%     67.77% # Number of instructions issued per FU type, per thread (Count)
system.cpu0.statIssuedInstType_0::SimdFloatDiv           13      0.00%     67.77% # Number of instructions issued per FU type, per thread (Count)
system.cpu0.statIssuedInstType_0::SimdFloatMisc            0      0.00%     67.77% # Number of instructions issued per FU type, per thread (Count)
system.cpu0.statIssuedInstType_0::SimdFloatMult           58      0.00%     67.77% # Number of instructions issued per FU type, per thread (Count)
system.cpu0.statIssuedInstType_0::SimdFloatMultAcc            0      0.00%     67.77% # Number of instructions issued per FU type, per thread (Count)
system.cpu0.statIssuedInstType_0::SimdFloatSqrt            0      0.00%     67.77% # Number of instructions issued per FU type, per thread (Count)
system.cpu0.statIssuedInstType_0::SimdReduceAdd            0      0.00%     67.77% # Number of instructions issued per FU type, per thread (Count)
system.cpu0.statIssuedInstType_0::SimdReduceAlu            0      0.00%     67.77% # Number of instructions issued per FU type, per thread (Count)
system.cpu0.statIssuedInstType_0::SimdReduceCmp            0      0.00%     67.77% # Number of instructions issued per FU type, per thread (Count)
system.cpu0.statIssuedInstType_0::SimdFloatReduceAdd            0      0.00%     67.77% # Number of instructions issued per FU type, per thread (Count)
system.cpu0.statIssuedInstType_0::SimdFloatReduceCmp            0      0.00%     67.77% # Number of instructions issued per FU type, per thread (Count)
system.cpu0.statIssuedInstType_0::SimdAes            0      0.00%     67.77% # Number of instructions issued per FU type, per thread (Count)
system.cpu0.statIssuedInstType_0::SimdAesMix            0      0.00%     67.77% # Number of instructions issued per FU type, per thread (Count)
system.cpu0.statIssuedInstType_0::SimdSha1Hash            0      0.00%     67.77% # Number of instructions issued per FU type, per thread (Count)
system.cpu0.statIssuedInstType_0::SimdSha1Hash2            0      0.00%     67.77% # Number of instructions issued per FU type, per thread (Count)
system.cpu0.statIssuedInstType_0::SimdSha256Hash            0      0.00%     67.77% # Number of instructions issued per FU type, per thread (Count)
system.cpu0.statIssuedInstType_0::SimdSha256Hash2            0      0.00%     67.77% # Number of instructions issued per FU type, per thread (Count)
system.cpu0.statIssuedInstType_0::SimdShaSigma2            0      0.00%     67.77% # Number of instructions issued per FU type, per thread (Count)
system.cpu0.statIssuedInstType_0::SimdShaSigma3            0      0.00%     67.77% # Number of instructions issued per FU type, per thread (Count)
system.cpu0.statIssuedInstType_0::SimdPredAlu            0      0.00%     67.77% # Number of instructions issued per FU type, per thread (Count)
system.cpu0.statIssuedInstType_0::MemRead     21600960     28.48%     96.25% # Number of instructions issued per FU type, per thread (Count)
system.cpu0.statIssuedInstType_0::MemWrite      2806879      3.70%     99.95% # Number of instructions issued per FU type, per thread (Count)
system.cpu0.statIssuedInstType_0::FloatMemRead        22970      0.03%     99.98% # Number of instructions issued per FU type, per thread (Count)
system.cpu0.statIssuedInstType_0::FloatMemWrite        15903      0.02%    100.00% # Number of instructions issued per FU type, per thread (Count)
system.cpu0.statIssuedInstType_0::IprAccess            0      0.00%    100.00% # Number of instructions issued per FU type, per thread (Count)
system.cpu0.statIssuedInstType_0::InstPrefetch            0      0.00%    100.00% # Number of instructions issued per FU type, per thread (Count)
system.cpu0.statIssuedInstType_0::total      75842430                       # Number of instructions issued per FU type, per thread (Count)
system.cpu0.issueRate                        1.553293                       # Inst issue rate ((Count/Cycle))
system.cpu0.fuBusy                            1621255                       # FU busy when requested (Count)
system.cpu0.fuBusyRate                       0.021377                       # FU busy rate (busy events/executed inst) ((Count/Count))
system.cpu0.intInstQueueReads               200472852                       # Number of integer instruction queue reads (Count)
system.cpu0.intInstQueueWrites               77881497                       # Number of integer instruction queue writes (Count)
system.cpu0.intInstQueueWakeupAccesses       75658276                       # Number of integer instruction queue wakeup accesses (Count)
system.cpu0.fpInstQueueReads                   217903                       # Number of floating instruction queue reads (Count)
system.cpu0.fpInstQueueWrites                  154056                       # Number of floating instruction queue writes (Count)
system.cpu0.fpInstQueueWakeupAccesses          104133                       # Number of floating instruction queue wakeup accesses (Count)
system.cpu0.vecInstQueueReads                       0                       # Number of vector instruction queue reads (Count)
system.cpu0.vecInstQueueWrites                      0                       # Number of vector instruction queue writes (Count)
system.cpu0.vecInstQueueWakeupAccesses              0                       # Number of vector instruction queue wakeup accesses (Count)
system.cpu0.intAluAccesses                   77326330                       # Number of integer alu accesses (Count)
system.cpu0.fpAluAccesses                      109619                       # Number of floating point alu accesses (Count)
system.cpu0.vecAluAccesses                          0                       # Number of vector alu accesses (Count)
system.cpu0.numInsts                         75812118                       # Number of executed instructions (Count)
system.cpu0.numLoadInsts                     21615700                       # Number of load instructions executed (Count)
system.cpu0.numSquashedInsts                    30306                       # Number of squashed instructions skipped in execute (Count)
system.cpu0.numSwp                                  0                       # Number of swp insts executed (Count)
system.cpu0.numNop                                  0                       # Number of nop insts executed (Count)
system.cpu0.numRefs                          24436062                       # Number of memory reference insts executed (Count)
system.cpu0.numBranches                       7569525                       # Number of branches executed (Count)
system.cpu0.numStoreInsts                     2820362                       # Number of stores executed (Count)
system.cpu0.numRate                          1.552672                       # Inst execution rate ((Count/Cycle))
system.cpu0.timesIdled                           2862                       # Number of times that the entire CPU went into an idle state and unscheduled itself (Count)
system.cpu0.idleCycles                        1444450                       # Total number of cycles that the CPU has spent unscheduled due to idling (Cycle)
system.cpu0.committedInsts                   42547283                       # Number of Instructions Simulated (Count)
system.cpu0.committedOps                     74464909                       # Number of Ops (including micro ops) Simulated (Count)
system.cpu0.cpi                              1.147591                       # CPI: Cycles Per Instruction ((Cycle/Count))
system.cpu0.totalCpi                         1.147591                       # CPI: Total CPI of All Threads ((Cycle/Count))
system.cpu0.ipc                              0.871391                       # IPC: Instructions Per Cycle ((Count/Cycle))
system.cpu0.totalIpc                         0.871391                       # IPC: Total IPC of All Threads ((Count/Cycle))
system.cpu0.intRegfileReads                  83087266                       # Number of integer regfile reads (Count)
system.cpu0.intRegfileWrites                 58251414                       # Number of integer regfile writes (Count)
system.cpu0.fpRegfileReads                     142116                       # Number of floating regfile reads (Count)
system.cpu0.fpRegfileWrites                     79866                       # Number of floating regfile writes (Count)
system.cpu0.ccRegfileReads                   39574793                       # number of cc regfile reads (Count)
system.cpu0.ccRegfileWrites                  31980986                       # number of cc regfile writes (Count)
system.cpu0.miscRegfileReads                 44081576                       # number of misc regfile reads (Count)
system.cpu0.miscRegfileWrites                     918                       # number of misc regfile writes (Count)
system.cpu0.MemDepUnit__0.insertedLoads      21660755                       # Number of loads inserted to the mem dependence unit. (Count)
system.cpu0.MemDepUnit__0.insertedStores      2838089                       # Number of stores inserted to the mem dependence unit. (Count)
system.cpu0.MemDepUnit__0.conflictingLoads      5212506                       # Number of conflicting loads. (Count)
system.cpu0.MemDepUnit__0.conflictingStores      1013411                       # Number of conflicting stores. (Count)
system.cpu0.MemDepUnit__1.insertedLoads             0                       # Number of loads inserted to the mem dependence unit. (Count)
system.cpu0.MemDepUnit__1.insertedStores            0                       # Number of stores inserted to the mem dependence unit. (Count)
system.cpu0.MemDepUnit__1.conflictingLoads            0                       # Number of conflicting loads. (Count)
system.cpu0.MemDepUnit__1.conflictingStores            0                       # Number of conflicting stores. (Count)
system.cpu0.MemDepUnit__2.insertedLoads             0                       # Number of loads inserted to the mem dependence unit. (Count)
system.cpu0.MemDepUnit__2.insertedStores            0                       # Number of stores inserted to the mem dependence unit. (Count)
system.cpu0.MemDepUnit__2.conflictingLoads            0                       # Number of conflicting loads. (Count)
system.cpu0.MemDepUnit__2.conflictingStores            0                       # Number of conflicting stores. (Count)
system.cpu0.MemDepUnit__3.insertedLoads             0                       # Number of loads inserted to the mem dependence unit. (Count)
system.cpu0.MemDepUnit__3.insertedStores            0                       # Number of stores inserted to the mem dependence unit. (Count)
system.cpu0.MemDepUnit__3.conflictingLoads            0                       # Number of conflicting loads. (Count)
system.cpu0.MemDepUnit__3.conflictingStores            0                       # Number of conflicting stores. (Count)
system.cpu0.branchPred.lookups                7714889                       # Number of BP lookups (Count)
system.cpu0.branchPred.condPredicted          7278349                       # Number of conditional branches predicted (Count)
system.cpu0.branchPred.condIncorrect            16838                       # Number of conditional branches incorrect (Count)
system.cpu0.branchPred.BTBLookups             4645980                       # Number of BTB lookups (Count)
system.cpu0.branchPred.BTBUpdates                8150                       # Number of BTB updates (Count)
system.cpu0.branchPred.BTBHits                4641928                       # Number of BTB hits (Count)
system.cpu0.branchPred.BTBHitRatio           0.999128                       # BTB Hit Ratio (Ratio)
system.cpu0.branchPred.RASUsed                  14841                       # Number of times the RAS was used to get a target. (Count)
system.cpu0.branchPred.RASIncorrect                12                       # Number of incorrect RAS predictions. (Count)
system.cpu0.branchPred.indirectLookups          11803                       # Number of indirect predictor lookups. (Count)
system.cpu0.branchPred.indirectHits              5017                       # Number of indirect target hits. (Count)
system.cpu0.branchPred.indirectMisses            6786                       # Number of indirect misses. (Count)
system.cpu0.branchPred.indirectMispredicted         1461                       # Number of mispredicted indirect branches. (Count)
system.cpu0.commit.commitSquashedInsts        1780214                       # The number of squashed insts skipped by commit (Count)
system.cpu0.commit.commitNonSpecStalls           1129                       # The number of times commit has been forced to stall to communicate backwards (Count)
system.cpu0.commit.branchMispredicts            17483                       # The number of times a branch was mispredicted (Count)
system.cpu0.commit.numCommittedDist::samples     47142571                       # Number of insts commited each cycle (Count)
system.cpu0.commit.numCommittedDist::mean     1.579568                       # Number of insts commited each cycle (Count)
system.cpu0.commit.numCommittedDist::stdev     2.842355                       # Number of insts commited each cycle (Count)
system.cpu0.commit.numCommittedDist::underflows            0      0.00%      0.00% # Number of insts commited each cycle (Count)
system.cpu0.commit.numCommittedDist::0       32637077     69.23%     69.23% # Number of insts commited each cycle (Count)
system.cpu0.commit.numCommittedDist::1        2008041      4.26%     73.49% # Number of insts commited each cycle (Count)
system.cpu0.commit.numCommittedDist::2        1985938      4.21%     77.70% # Number of insts commited each cycle (Count)
system.cpu0.commit.numCommittedDist::3        2164531      4.59%     82.29% # Number of insts commited each cycle (Count)
system.cpu0.commit.numCommittedDist::4         149044      0.32%     82.61% # Number of insts commited each cycle (Count)
system.cpu0.commit.numCommittedDist::5         272600      0.58%     83.19% # Number of insts commited each cycle (Count)
system.cpu0.commit.numCommittedDist::6        1594850      3.38%     86.57% # Number of insts commited each cycle (Count)
system.cpu0.commit.numCommittedDist::7         180797      0.38%     86.96% # Number of insts commited each cycle (Count)
system.cpu0.commit.numCommittedDist::8        6149693     13.04%    100.00% # Number of insts commited each cycle (Count)
system.cpu0.commit.numCommittedDist::overflows            0      0.00%    100.00% # Number of insts commited each cycle (Count)
system.cpu0.commit.numCommittedDist::min_value            0                       # Number of insts commited each cycle (Count)
system.cpu0.commit.numCommittedDist::max_value            8                       # Number of insts commited each cycle (Count)
system.cpu0.commit.numCommittedDist::total     47142571                       # Number of insts commited each cycle (Count)
system.cpu0.commit.instsCommitted            42547283                       # Number of instructions committed (Count)
system.cpu0.commit.opsCommitted              74464909                       # Number of ops (including micro ops) committed (Count)
system.cpu0.commit.memRefs                   24010077                       # Number of memory references committed (Count)
system.cpu0.commit.loads                     21319241                       # Number of loads committed (Count)
system.cpu0.commit.amos                             0                       # Number of atomic instructions committed (Count)
system.cpu0.commit.membars                        138                       # Number of memory barriers committed (Count)
system.cpu0.commit.branches                   7462268                       # Number of branches committed (Count)
system.cpu0.commit.vectorInstructions               0                       # Number of committed Vector instructions. (Count)
system.cpu0.commit.floating                     89322                       # Number of committed floating point instructions. (Count)
system.cpu0.commit.integer                   74395715                       # Number of committed integer instructions. (Count)
system.cpu0.commit.functionCalls                11942                       # Number of function calls committed. (Count)
system.cpu0.commit.committedInstType_0::No_OpClass        14800      0.02%      0.02% # Class of committed instruction (Count)
system.cpu0.commit.committedInstType_0::IntAlu     50314182     67.57%     67.59% # Class of committed instruction (Count)
system.cpu0.commit.committedInstType_0::IntMult        34592      0.05%     67.63% # Class of committed instruction (Count)
system.cpu0.commit.committedInstType_0::IntDiv        37467      0.05%     67.68% # Class of committed instruction (Count)
system.cpu0.commit.committedInstType_0::FloatAdd         7182      0.01%     67.69% # Class of committed instruction (Count)
system.cpu0.commit.committedInstType_0::FloatCmp            0      0.00%     67.69% # Class of committed instruction (Count)
system.cpu0.commit.committedInstType_0::FloatCvt         1632      0.00%     67.70% # Class of committed instruction (Count)
system.cpu0.commit.committedInstType_0::FloatMult            0      0.00%     67.70% # Class of committed instruction (Count)
system.cpu0.commit.committedInstType_0::FloatMultAcc            0      0.00%     67.70% # Class of committed instruction (Count)
system.cpu0.commit.committedInstType_0::FloatDiv            0      0.00%     67.70% # Class of committed instruction (Count)
system.cpu0.commit.committedInstType_0::FloatMisc            0      0.00%     67.70% # Class of committed instruction (Count)
system.cpu0.commit.committedInstType_0::FloatSqrt            0      0.00%     67.70% # Class of committed instruction (Count)
system.cpu0.commit.committedInstType_0::SimdAdd         6188      0.01%     67.70% # Class of committed instruction (Count)
system.cpu0.commit.committedInstType_0::SimdAddAcc            0      0.00%     67.70% # Class of committed instruction (Count)
system.cpu0.commit.committedInstType_0::SimdAlu        11994      0.02%     67.72% # Class of committed instruction (Count)
system.cpu0.commit.committedInstType_0::SimdCmp           12      0.00%     67.72% # Class of committed instruction (Count)
system.cpu0.commit.committedInstType_0::SimdCvt        12370      0.02%     67.74% # Class of committed instruction (Count)
system.cpu0.commit.committedInstType_0::SimdMisc        13257      0.02%     67.75% # Class of committed instruction (Count)
system.cpu0.commit.committedInstType_0::SimdMult            0      0.00%     67.75% # Class of committed instruction (Count)
system.cpu0.commit.committedInstType_0::SimdMultAcc            0      0.00%     67.75% # Class of committed instruction (Count)
system.cpu0.commit.committedInstType_0::SimdShift          993      0.00%     67.76% # Class of committed instruction (Count)
system.cpu0.commit.committedInstType_0::SimdShiftAcc            0      0.00%     67.76% # Class of committed instruction (Count)
system.cpu0.commit.committedInstType_0::SimdDiv            0      0.00%     67.76% # Class of committed instruction (Count)
system.cpu0.commit.committedInstType_0::SimdSqrt            0      0.00%     67.76% # Class of committed instruction (Count)
system.cpu0.commit.committedInstType_0::SimdFloatAdd           44      0.00%     67.76% # Class of committed instruction (Count)
system.cpu0.commit.committedInstType_0::SimdFloatAlu            0      0.00%     67.76% # Class of committed instruction (Count)
system.cpu0.commit.committedInstType_0::SimdFloatCmp            0      0.00%     67.76% # Class of committed instruction (Count)
system.cpu0.commit.committedInstType_0::SimdFloatCvt           49      0.00%     67.76% # Class of committed instruction (Count)
system.cpu0.commit.committedInstType_0::SimdFloatDiv           13      0.00%     67.76% # Class of committed instruction (Count)
system.cpu0.commit.committedInstType_0::SimdFloatMisc            0      0.00%     67.76% # Class of committed instruction (Count)
system.cpu0.commit.committedInstType_0::SimdFloatMult           57      0.00%     67.76% # Class of committed instruction (Count)
system.cpu0.commit.committedInstType_0::SimdFloatMultAcc            0      0.00%     67.76% # Class of committed instruction (Count)
system.cpu0.commit.committedInstType_0::SimdFloatSqrt            0      0.00%     67.76% # Class of committed instruction (Count)
system.cpu0.commit.committedInstType_0::SimdReduceAdd            0      0.00%     67.76% # Class of committed instruction (Count)
system.cpu0.commit.committedInstType_0::SimdReduceAlu            0      0.00%     67.76% # Class of committed instruction (Count)
system.cpu0.commit.committedInstType_0::SimdReduceCmp            0      0.00%     67.76% # Class of committed instruction (Count)
system.cpu0.commit.committedInstType_0::SimdFloatReduceAdd            0      0.00%     67.76% # Class of committed instruction (Count)
system.cpu0.commit.committedInstType_0::SimdFloatReduceCmp            0      0.00%     67.76% # Class of committed instruction (Count)
system.cpu0.commit.committedInstType_0::SimdAes            0      0.00%     67.76% # Class of committed instruction (Count)
system.cpu0.commit.committedInstType_0::SimdAesMix            0      0.00%     67.76% # Class of committed instruction (Count)
system.cpu0.commit.committedInstType_0::SimdSha1Hash            0      0.00%     67.76% # Class of committed instruction (Count)
system.cpu0.commit.committedInstType_0::SimdSha1Hash2            0      0.00%     67.76% # Class of committed instruction (Count)
system.cpu0.commit.committedInstType_0::SimdSha256Hash            0      0.00%     67.76% # Class of committed instruction (Count)
system.cpu0.commit.committedInstType_0::SimdSha256Hash2            0      0.00%     67.76% # Class of committed instruction (Count)
system.cpu0.commit.committedInstType_0::SimdShaSigma2            0      0.00%     67.76% # Class of committed instruction (Count)
system.cpu0.commit.committedInstType_0::SimdShaSigma3            0      0.00%     67.76% # Class of committed instruction (Count)
system.cpu0.commit.committedInstType_0::SimdPredAlu            0      0.00%     67.76% # Class of committed instruction (Count)
system.cpu0.commit.committedInstType_0::MemRead     21302572     28.61%     96.36% # Class of committed instruction (Count)
system.cpu0.commit.committedInstType_0::MemWrite      2675869      3.59%     99.96% # Class of committed instruction (Count)
system.cpu0.commit.committedInstType_0::FloatMemRead        16669      0.02%     99.98% # Class of committed instruction (Count)
system.cpu0.commit.committedInstType_0::FloatMemWrite        14967      0.02%    100.00% # Class of committed instruction (Count)
system.cpu0.commit.committedInstType_0::IprAccess            0      0.00%    100.00% # Class of committed instruction (Count)
system.cpu0.commit.committedInstType_0::InstPrefetch            0      0.00%    100.00% # Class of committed instruction (Count)
system.cpu0.commit.committedInstType_0::total     74464909                       # Class of committed instruction (Count)
system.cpu0.commit.commitEligibleSamples      6149693                       # number cycles where commit BW limit reached (Cycle)
system.cpu0.decode.idleCycles                 3800731                       # Number of cycles decode is idle (Cycle)
system.cpu0.decode.blockedCycles             32394654                       # Number of cycles decode is blocked (Cycle)
system.cpu0.decode.runCycles                  9889320                       # Number of cycles decode is running (Cycle)
system.cpu0.decode.unblockCycles              1273559                       # Number of cycles decode is unblocking (Cycle)
system.cpu0.decode.squashCycles                 24144                       # Number of cycles decode is squashing (Cycle)
system.cpu0.decode.branchResolved             4610086                       # Number of times decode resolved a branch (Count)
system.cpu0.decode.branchMispred                 1434                       # Number of times decode detected a branch misprediction (Count)
system.cpu0.decode.decodedInsts              76507162                       # Number of instructions handled by decode (Count)
system.cpu0.decode.squashedInsts                 7305                       # Number of squashed instructions handled by decode (Count)
system.cpu0.fetch.icacheStallCycles           5105033                       # Number of cycles fetch is stalled on an Icache miss (Cycle)
system.cpu0.fetch.insts                      44006374                       # Number of instructions fetch has processed (Count)
system.cpu0.fetch.branches                    7714889                       # Number of branches that fetch encountered (Count)
system.cpu0.fetch.predictedBranches           4661786                       # Number of branches that fetch has predicted taken (Count)
system.cpu0.fetch.cycles                     42038202                       # Number of cycles fetch has run and was not squashing or blocked (Cycle)
system.cpu0.fetch.squashCycles                  51096                       # Number of cycles fetch has spent squashing (Cycle)
system.cpu0.fetch.miscStallCycles                5871                       # Number of cycles fetch has spent waiting on interrupts, or bad addresses, or out of MSHRs (Cycle)
system.cpu0.fetch.pendingTrapStallCycles        13853                       # Number of stall cycles due to pending traps (Cycle)
system.cpu0.fetch.icacheWaitRetryStallCycles       193901                       # Number of stall cycles due to full MSHR (Cycle)
system.cpu0.fetch.cacheLines                  4833498                       # Number of cache lines fetched (Count)
system.cpu0.fetch.icacheSquashes                 4851                       # Number of outstanding Icache misses that were squashed (Count)
system.cpu0.fetch.nisnDist::samples          47382408                       # Number of instructions fetched each cycle (Total) (Count)
system.cpu0.fetch.nisnDist::mean             1.625763                       # Number of instructions fetched each cycle (Total) (Count)
system.cpu0.fetch.nisnDist::stdev            2.910590                       # Number of instructions fetched each cycle (Total) (Count)
system.cpu0.fetch.nisnDist::underflows              0      0.00%      0.00% # Number of instructions fetched each cycle (Total) (Count)
system.cpu0.fetch.nisnDist::0                35163393     74.21%     74.21% # Number of instructions fetched each cycle (Total) (Count)
system.cpu0.fetch.nisnDist::1                   99293      0.21%     74.42% # Number of instructions fetched each cycle (Total) (Count)
system.cpu0.fetch.nisnDist::2                  592023      1.25%     75.67% # Number of instructions fetched each cycle (Total) (Count)
system.cpu0.fetch.nisnDist::3                  235826      0.50%     76.17% # Number of instructions fetched each cycle (Total) (Count)
system.cpu0.fetch.nisnDist::4                 1536996      3.24%     79.41% # Number of instructions fetched each cycle (Total) (Count)
system.cpu0.fetch.nisnDist::5                  733310      1.55%     80.96% # Number of instructions fetched each cycle (Total) (Count)
system.cpu0.fetch.nisnDist::6                 2961651      6.25%     87.21% # Number of instructions fetched each cycle (Total) (Count)
system.cpu0.fetch.nisnDist::7                 1022008      2.16%     89.37% # Number of instructions fetched each cycle (Total) (Count)
system.cpu0.fetch.nisnDist::8                 5037908     10.63%    100.00% # Number of instructions fetched each cycle (Total) (Count)
system.cpu0.fetch.nisnDist::overflows               0      0.00%    100.00% # Number of instructions fetched each cycle (Total) (Count)
system.cpu0.fetch.nisnDist::min_value               0                       # Number of instructions fetched each cycle (Total) (Count)
system.cpu0.fetch.nisnDist::max_value               8                       # Number of instructions fetched each cycle (Total) (Count)
system.cpu0.fetch.nisnDist::total            47382408                       # Number of instructions fetched each cycle (Total) (Count)
system.cpu0.fetch.branchRate                 0.158005                       # Number of branch fetches per cycle (Ratio)
system.cpu0.fetch.rate                       0.901274                       # Number of inst fetches per cycle ((Count/Cycle))
system.cpu0.iew.idleCycles                          0                       # Number of cycles IEW is idle (Cycle)
system.cpu0.iew.squashCycles                    24144                       # Number of cycles IEW is squashing (Cycle)
system.cpu0.iew.blockCycles                   5904463                       # Number of cycles IEW is blocking (Cycle)
system.cpu0.iew.unblockCycles                  106156                       # Number of cycles IEW is unblocking (Cycle)
system.cpu0.iew.dispatchedInsts              76249952                       # Number of instructions dispatched to IQ (Count)
system.cpu0.iew.dispSquashedInsts                 831                       # Number of squashed instructions skipped by dispatch (Count)
system.cpu0.iew.dispLoadInsts                21660755                       # Number of dispatched load instructions (Count)
system.cpu0.iew.dispStoreInsts                2838089                       # Number of dispatched store instructions (Count)
system.cpu0.iew.dispNonSpecInsts                 1035                       # Number of dispatched non-speculative instructions (Count)
system.cpu0.iew.iqFullEvents                    10427                       # Number of times the IQ has become full, causing a stall (Count)
system.cpu0.iew.lsqFullEvents                   89279                       # Number of times the LSQ has become full, causing a stall (Count)
system.cpu0.iew.memOrderViolationEvents           664                       # Number of memory order violations (Count)
system.cpu0.iew.predictedTakenIncorrect          7541                       # Number of branches that were predicted taken incorrectly (Count)
system.cpu0.iew.predictedNotTakenIncorrect        12320                       # Number of branches that were predicted not taken incorrectly (Count)
system.cpu0.iew.branchMispredicts               19861                       # Number of branch mispredicts detected at execute (Count)
system.cpu0.iew.instsToCommit                75796241                       # Cumulative count of insts sent to commit (Count)
system.cpu0.iew.writebackCount               75762409                       # Cumulative count of insts written-back (Count)
system.cpu0.iew.producerInst                 65034633                       # Number of instructions producing a value (Count)
system.cpu0.iew.consumerInst                 84150903                       # Number of instructions consuming a value (Count)
system.cpu0.iew.wbRate                       1.551654                       # Insts written-back per cycle ((Count/Cycle))
system.cpu0.iew.wbFanout                     0.772833                       # Average fanout of values written-back ((Count/Count))
system.cpu0.interrupts.clk_domain.clock          8000                       # Clock period in ticks (Tick)
system.cpu0.lsq0.forwLoads                    7429084                       # Number of loads that had data forwarded from stores (Count)
system.cpu0.lsq0.squashedLoads                 341492                       # Number of loads squashed (Count)
system.cpu0.lsq0.ignoredResponses                 321                       # Number of memory responses ignored because the instruction is squashed (Count)
system.cpu0.lsq0.memOrderViolation                664                       # Number of memory ordering violations (Count)
system.cpu0.lsq0.squashedStores                147247                       # Number of stores squashed (Count)
system.cpu0.lsq0.rescheduledLoads                  27                       # Number of loads that were rescheduled (Count)
system.cpu0.lsq0.blockedByCache                  1550                       # Number of times an access to memory failed due to the cache being blocked (Count)
system.cpu0.lsq0.loadToUse::samples          21319239                       # Distribution of cycle latency between the first time a load is issued and its completion (Unspecified)
system.cpu0.lsq0.loadToUse::mean             4.049399                       # Distribution of cycle latency between the first time a load is issued and its completion (Unspecified)
system.cpu0.lsq0.loadToUse::stdev           33.522271                       # Distribution of cycle latency between the first time a load is issued and its completion (Unspecified)
system.cpu0.lsq0.loadToUse::0-9              21276357     99.80%     99.80% # Distribution of cycle latency between the first time a load is issued and its completion (Unspecified)
system.cpu0.lsq0.loadToUse::10-19                  33      0.00%     99.80% # Distribution of cycle latency between the first time a load is issued and its completion (Unspecified)
system.cpu0.lsq0.loadToUse::20-29                  26      0.00%     99.80% # Distribution of cycle latency between the first time a load is issued and its completion (Unspecified)
system.cpu0.lsq0.loadToUse::30-39                  26      0.00%     99.80% # Distribution of cycle latency between the first time a load is issued and its completion (Unspecified)
system.cpu0.lsq0.loadToUse::40-49                  70      0.00%     99.80% # Distribution of cycle latency between the first time a load is issued and its completion (Unspecified)
system.cpu0.lsq0.loadToUse::50-59                 107      0.00%     99.80% # Distribution of cycle latency between the first time a load is issued and its completion (Unspecified)
system.cpu0.lsq0.loadToUse::60-69                  48      0.00%     99.80% # Distribution of cycle latency between the first time a load is issued and its completion (Unspecified)
system.cpu0.lsq0.loadToUse::70-79                  19      0.00%     99.80% # Distribution of cycle latency between the first time a load is issued and its completion (Unspecified)
system.cpu0.lsq0.loadToUse::80-89                  33      0.00%     99.80% # Distribution of cycle latency between the first time a load is issued and its completion (Unspecified)
system.cpu0.lsq0.loadToUse::90-99                  22      0.00%     99.80% # Distribution of cycle latency between the first time a load is issued and its completion (Unspecified)
system.cpu0.lsq0.loadToUse::100-109                35      0.00%     99.80% # Distribution of cycle latency between the first time a load is issued and its completion (Unspecified)
system.cpu0.lsq0.loadToUse::110-119                39      0.00%     99.80% # Distribution of cycle latency between the first time a load is issued and its completion (Unspecified)
system.cpu0.lsq0.loadToUse::120-129                28      0.00%     99.80% # Distribution of cycle latency between the first time a load is issued and its completion (Unspecified)
system.cpu0.lsq0.loadToUse::130-139                20      0.00%     99.80% # Distribution of cycle latency between the first time a load is issued and its completion (Unspecified)
system.cpu0.lsq0.loadToUse::140-149                28      0.00%     99.80% # Distribution of cycle latency between the first time a load is issued and its completion (Unspecified)
system.cpu0.lsq0.loadToUse::150-159                31      0.00%     99.80% # Distribution of cycle latency between the first time a load is issued and its completion (Unspecified)
system.cpu0.lsq0.loadToUse::160-169                34      0.00%     99.80% # Distribution of cycle latency between the first time a load is issued and its completion (Unspecified)
system.cpu0.lsq0.loadToUse::170-179                95      0.00%     99.80% # Distribution of cycle latency between the first time a load is issued and its completion (Unspecified)
system.cpu0.lsq0.loadToUse::180-189               584      0.00%     99.80% # Distribution of cycle latency between the first time a load is issued and its completion (Unspecified)
system.cpu0.lsq0.loadToUse::190-199                10      0.00%     99.80% # Distribution of cycle latency between the first time a load is issued and its completion (Unspecified)
system.cpu0.lsq0.loadToUse::200-209                25      0.00%     99.81% # Distribution of cycle latency between the first time a load is issued and its completion (Unspecified)
system.cpu0.lsq0.loadToUse::210-219                37      0.00%     99.81% # Distribution of cycle latency between the first time a load is issued and its completion (Unspecified)
system.cpu0.lsq0.loadToUse::220-229                49      0.00%     99.81% # Distribution of cycle latency between the first time a load is issued and its completion (Unspecified)
system.cpu0.lsq0.loadToUse::230-239               138      0.00%     99.81% # Distribution of cycle latency between the first time a load is issued and its completion (Unspecified)
system.cpu0.lsq0.loadToUse::240-249               936      0.00%     99.81% # Distribution of cycle latency between the first time a load is issued and its completion (Unspecified)
system.cpu0.lsq0.loadToUse::250-259                23      0.00%     99.81% # Distribution of cycle latency between the first time a load is issued and its completion (Unspecified)
system.cpu0.lsq0.loadToUse::260-269                29      0.00%     99.81% # Distribution of cycle latency between the first time a load is issued and its completion (Unspecified)
system.cpu0.lsq0.loadToUse::270-279                62      0.00%     99.81% # Distribution of cycle latency between the first time a load is issued and its completion (Unspecified)
system.cpu0.lsq0.loadToUse::280-289                67      0.00%     99.81% # Distribution of cycle latency between the first time a load is issued and its completion (Unspecified)
system.cpu0.lsq0.loadToUse::290-299               238      0.00%     99.81% # Distribution of cycle latency between the first time a load is issued and its completion (Unspecified)
system.cpu0.lsq0.loadToUse::overflows           39990      0.19%    100.00% # Distribution of cycle latency between the first time a load is issued and its completion (Unspecified)
system.cpu0.lsq0.loadToUse::min_value               2                       # Distribution of cycle latency between the first time a load is issued and its completion (Unspecified)
system.cpu0.lsq0.loadToUse::max_value            2598                       # Distribution of cycle latency between the first time a load is issued and its completion (Unspecified)
system.cpu0.lsq0.loadToUse::total            21319239                       # Distribution of cycle latency between the first time a load is issued and its completion (Unspecified)
system.cpu0.mmu.dtb.rdAccesses               21611299                       # TLB accesses on read requests (Count)
system.cpu0.mmu.dtb.wrAccesses                2820389                       # TLB accesses on write requests (Count)
system.cpu0.mmu.dtb.rdMisses                     3626                       # TLB misses on read requests (Count)
system.cpu0.mmu.dtb.wrMisses                    28565                       # TLB misses on write requests (Count)
system.cpu0.mmu.dtb.walker.power_state.pwrStateResidencyTicks::UNDEFINED  24413428500                       # Cumulative time (in ticks) in various power states (Tick)
system.cpu0.mmu.itb.rdAccesses                      0                       # TLB accesses on read requests (Count)
system.cpu0.mmu.itb.wrAccesses                4835627                       # TLB accesses on write requests (Count)
system.cpu0.mmu.itb.rdMisses                        0                       # TLB misses on read requests (Count)
system.cpu0.mmu.itb.wrMisses                     2936                       # TLB misses on write requests (Count)
system.cpu0.mmu.itb.walker.power_state.pwrStateResidencyTicks::UNDEFINED  24413428500                       # Cumulative time (in ticks) in various power states (Tick)
system.cpu0.power_state.pwrStateResidencyTicks::ON  24413428500                       # Cumulative time (in ticks) in various power states (Tick)
system.cpu0.rename.squashCycles                 24144                       # Number of cycles rename is squashing (Cycle)
system.cpu0.rename.idleCycles                 4459035                       # Number of cycles rename is idle (Cycle)
system.cpu0.rename.blockCycles                6609146                       # Number of cycles rename is blocking (Cycle)
system.cpu0.rename.serializeStallCycles         22021                       # count of cycles rename stalled for serializing inst (Cycle)
system.cpu0.rename.runCycles                 10492188                       # Number of cycles rename is running (Cycle)
system.cpu0.rename.unblockCycles             25775874                       # Number of cycles rename is unblocking (Cycle)
system.cpu0.rename.renamedInsts              76367870                       # Number of instructions processed by rename (Count)
system.cpu0.rename.ROBFullEvents                 9145                       # Number of times rename has blocked due to ROB full (Count)
system.cpu0.rename.IQFullEvents                276563                       # Number of times rename has blocked due to IQ full (Count)
system.cpu0.rename.LQFullEvents              22712091                       # Number of times rename has blocked due to LQ full (Count)
system.cpu0.rename.SQFullEvents               2720188                       # Number of times rename has blocked due to SQ full (Count)
system.cpu0.rename.fullRegistersEvents           2164                       # Number of times there has been no free registers (Count)
system.cpu0.rename.renamedOperands          146905191                       # Number of destination operands rename has renamed (Count)
system.cpu0.rename.lookups                  270821184                       # Number of register rename lookups that rename has made (Count)
system.cpu0.rename.intLookups                84117460                       # Number of integer rename lookups (Count)
system.cpu0.rename.fpLookups                   182150                       # Number of floating rename lookups (Count)
system.cpu0.rename.committedMaps            143384947                       # Number of HB maps that are committed (Count)
system.cpu0.rename.undoneMaps                 3520078                       # Number of HB maps that are undone due to squashing (Count)
system.cpu0.rename.serializing                   1001                       # count of serializing insts renamed (Count)
system.cpu0.rename.tempSerializing                988                       # count of temporary serializing insts renamed (Count)
system.cpu0.rename.skidInsts                  8529034                       # count of insts added to the skid buffer (Count)
system.cpu0.rob.reads                       117158402                       # The number of ROB reads (Count)
system.cpu0.rob.writes                      152730405                       # The number of ROB writes (Count)
system.cpu0.thread_0.numInsts                42547283                       # Number of Instructions committed (Count)
system.cpu0.thread_0.numOps                  74464909                       # Number of Ops committed (Count)
system.cpu0.thread_0.numMemRefs                     0                       # Number of Memory References (Count)
system.cpu0.workload.numSyscalls                   76                       # Number of system calls (Count)
system.cpu1.numCycles                        48826858                       # Number of cpu cycles simulated (Cycle)
system.cpu1.numWorkItemsStarted                     0                       # Number of work items this cpu started (Count)
system.cpu1.numWorkItemsCompleted                   0                       # Number of work items this cpu completed (Count)
system.cpu1.instsAdded                       84735764                       # Number of instructions added to the IQ (excludes non-spec) (Count)
system.cpu1.nonSpecInstsAdded                    1230                       # Number of non-speculative instructions added to the IQ (Count)
system.cpu1.instsIssued                      84324515                       # Number of instructions issued (Count)
system.cpu1.squashedInstsIssued                  2235                       # Number of squashed instructions issued (Count)
system.cpu1.squashedInstsExamined             1804981                       # Number of squashed instructions iterated over during squash; mainly for profiling (Count)
system.cpu1.squashedOperandsExamined          2496673                       # Number of squashed operands that are examined and possibly removed from graph (Count)
system.cpu1.squashedNonSpecRemoved                101                       # Number of squashed non-spec instructions that were removed (Count)
system.cpu1.numIssuedDist::samples           47446589                       # Number of insts issued each cycle (Count)
system.cpu1.numIssuedDist::mean              1.777251                       # Number of insts issued each cycle (Count)
system.cpu1.numIssuedDist::stdev             2.451885                       # Number of insts issued each cycle (Count)
system.cpu1.numIssuedDist::underflows               0      0.00%      0.00% # Number of insts issued each cycle (Count)
system.cpu1.numIssuedDist::0                 27456117     57.87%     57.87% # Number of insts issued each cycle (Count)
system.cpu1.numIssuedDist::1                  2093865      4.41%     62.28% # Number of insts issued each cycle (Count)
system.cpu1.numIssuedDist::2                  2800104      5.90%     68.18% # Number of insts issued each cycle (Count)
system.cpu1.numIssuedDist::3                  2430303      5.12%     73.30% # Number of insts issued each cycle (Count)
system.cpu1.numIssuedDist::4                  3519103      7.42%     80.72% # Number of insts issued each cycle (Count)
system.cpu1.numIssuedDist::5                  3526709      7.43%     88.15% # Number of insts issued each cycle (Count)
system.cpu1.numIssuedDist::6                  2880074      6.07%     94.22% # Number of insts issued each cycle (Count)
system.cpu1.numIssuedDist::7                  1573380      3.32%     97.54% # Number of insts issued each cycle (Count)
system.cpu1.numIssuedDist::8                  1166934      2.46%    100.00% # Number of insts issued each cycle (Count)
system.cpu1.numIssuedDist::overflows                0      0.00%    100.00% # Number of insts issued each cycle (Count)
system.cpu1.numIssuedDist::min_value                0                       # Number of insts issued each cycle (Count)
system.cpu1.numIssuedDist::max_value                8                       # Number of insts issued each cycle (Count)
system.cpu1.numIssuedDist::total             47446589                       # Number of insts issued each cycle (Count)
system.cpu1.statFuBusy::No_OpClass                  0      0.00%      0.00% # attempts to use FU when none available (Count)
system.cpu1.statFuBusy::IntAlu                 732013     38.55%     38.55% # attempts to use FU when none available (Count)
system.cpu1.statFuBusy::IntMult                     0      0.00%     38.55% # attempts to use FU when none available (Count)
system.cpu1.statFuBusy::IntDiv                      0      0.00%     38.55% # attempts to use FU when none available (Count)
system.cpu1.statFuBusy::FloatAdd                    0      0.00%     38.55% # attempts to use FU when none available (Count)
system.cpu1.statFuBusy::FloatCmp                    0      0.00%     38.55% # attempts to use FU when none available (Count)
system.cpu1.statFuBusy::FloatCvt                    0      0.00%     38.55% # attempts to use FU when none available (Count)
system.cpu1.statFuBusy::FloatMult                   0      0.00%     38.55% # attempts to use FU when none available (Count)
system.cpu1.statFuBusy::FloatMultAcc                0      0.00%     38.55% # attempts to use FU when none available (Count)
system.cpu1.statFuBusy::FloatDiv                    0      0.00%     38.55% # attempts to use FU when none available (Count)
system.cpu1.statFuBusy::FloatMisc                   0      0.00%     38.55% # attempts to use FU when none available (Count)
system.cpu1.statFuBusy::FloatSqrt                   0      0.00%     38.55% # attempts to use FU when none available (Count)
system.cpu1.statFuBusy::SimdAdd                    12      0.00%     38.55% # attempts to use FU when none available (Count)
system.cpu1.statFuBusy::SimdAddAcc                  0      0.00%     38.55% # attempts to use FU when none available (Count)
system.cpu1.statFuBusy::SimdAlu                   118      0.01%     38.56% # attempts to use FU when none available (Count)
system.cpu1.statFuBusy::SimdCmp                     0      0.00%     38.56% # attempts to use FU when none available (Count)
system.cpu1.statFuBusy::SimdCvt                   236      0.01%     38.57% # attempts to use FU when none available (Count)
system.cpu1.statFuBusy::SimdMisc                   23      0.00%     38.57% # attempts to use FU when none available (Count)
system.cpu1.statFuBusy::SimdMult                    0      0.00%     38.57% # attempts to use FU when none available (Count)
system.cpu1.statFuBusy::SimdMultAcc                 0      0.00%     38.57% # attempts to use FU when none available (Count)
system.cpu1.statFuBusy::SimdShift                 142      0.01%     38.58% # attempts to use FU when none available (Count)
system.cpu1.statFuBusy::SimdShiftAcc                0      0.00%     38.58% # attempts to use FU when none available (Count)
system.cpu1.statFuBusy::SimdDiv                     0      0.00%     38.58% # attempts to use FU when none available (Count)
system.cpu1.statFuBusy::SimdSqrt                    0      0.00%     38.58% # attempts to use FU when none available (Count)
system.cpu1.statFuBusy::SimdFloatAdd                0      0.00%     38.58% # attempts to use FU when none available (Count)
system.cpu1.statFuBusy::SimdFloatAlu                0      0.00%     38.58% # attempts to use FU when none available (Count)
system.cpu1.statFuBusy::SimdFloatCmp                0      0.00%     38.58% # attempts to use FU when none available (Count)
system.cpu1.statFuBusy::SimdFloatCvt                0      0.00%     38.58% # attempts to use FU when none available (Count)
system.cpu1.statFuBusy::SimdFloatDiv                0      0.00%     38.58% # attempts to use FU when none available (Count)
system.cpu1.statFuBusy::SimdFloatMisc               0      0.00%     38.58% # attempts to use FU when none available (Count)
system.cpu1.statFuBusy::SimdFloatMult               0      0.00%     38.58% # attempts to use FU when none available (Count)
system.cpu1.statFuBusy::SimdFloatMultAcc            0      0.00%     38.58% # attempts to use FU when none available (Count)
system.cpu1.statFuBusy::SimdFloatSqrt               0      0.00%     38.58% # attempts to use FU when none available (Count)
system.cpu1.statFuBusy::SimdReduceAdd               0      0.00%     38.58% # attempts to use FU when none available (Count)
system.cpu1.statFuBusy::SimdReduceAlu               0      0.00%     38.58% # attempts to use FU when none available (Count)
system.cpu1.statFuBusy::SimdReduceCmp               0      0.00%     38.58% # attempts to use FU when none available (Count)
system.cpu1.statFuBusy::SimdFloatReduceAdd            0      0.00%     38.58% # attempts to use FU when none available (Count)
system.cpu1.statFuBusy::SimdFloatReduceCmp            0      0.00%     38.58% # attempts to use FU when none available (Count)
system.cpu1.statFuBusy::SimdAes                     0      0.00%     38.58% # attempts to use FU when none available (Count)
system.cpu1.statFuBusy::SimdAesMix                  0      0.00%     38.58% # attempts to use FU when none available (Count)
system.cpu1.statFuBusy::SimdSha1Hash                0      0.00%     38.58% # attempts to use FU when none available (Count)
system.cpu1.statFuBusy::SimdSha1Hash2               0      0.00%     38.58% # attempts to use FU when none available (Count)
system.cpu1.statFuBusy::SimdSha256Hash              0      0.00%     38.58% # attempts to use FU when none available (Count)
system.cpu1.statFuBusy::SimdSha256Hash2             0      0.00%     38.58% # attempts to use FU when none available (Count)
system.cpu1.statFuBusy::SimdShaSigma2               0      0.00%     38.58% # attempts to use FU when none available (Count)
system.cpu1.statFuBusy::SimdShaSigma3               0      0.00%     38.58% # attempts to use FU when none available (Count)
system.cpu1.statFuBusy::SimdPredAlu                 0      0.00%     38.58% # attempts to use FU when none available (Count)
system.cpu1.statFuBusy::MemRead               1153360     60.75%     99.33% # attempts to use FU when none available (Count)
system.cpu1.statFuBusy::MemWrite                11717      0.62%     99.94% # attempts to use FU when none available (Count)
system.cpu1.statFuBusy::FloatMemRead              718      0.04%     99.98% # attempts to use FU when none available (Count)
system.cpu1.statFuBusy::FloatMemWrite             329      0.02%    100.00% # attempts to use FU when none available (Count)
system.cpu1.statFuBusy::IprAccess                   0      0.00%    100.00% # attempts to use FU when none available (Count)
system.cpu1.statFuBusy::InstPrefetch                0      0.00%    100.00% # attempts to use FU when none available (Count)
system.cpu1.statIssuedInstType_0::No_OpClass        27811      0.03%      0.03% # Number of instructions issued per FU type, per thread (Count)
system.cpu1.statIssuedInstType_0::IntAlu     56915716     67.50%     67.53% # Number of instructions issued per FU type, per thread (Count)
system.cpu1.statIssuedInstType_0::IntMult        40042      0.05%     67.58% # Number of instructions issued per FU type, per thread (Count)
system.cpu1.statIssuedInstType_0::IntDiv        39989      0.05%     67.62% # Number of instructions issued per FU type, per thread (Count)
system.cpu1.statIssuedInstType_0::FloatAdd         8640      0.01%     67.63% # Number of instructions issued per FU type, per thread (Count)
system.cpu1.statIssuedInstType_0::FloatCmp            0      0.00%     67.63% # Number of instructions issued per FU type, per thread (Count)
system.cpu1.statIssuedInstType_0::FloatCvt         1704      0.00%     67.64% # Number of instructions issued per FU type, per thread (Count)
system.cpu1.statIssuedInstType_0::FloatMult            0      0.00%     67.64% # Number of instructions issued per FU type, per thread (Count)
system.cpu1.statIssuedInstType_0::FloatMultAcc            0      0.00%     67.64% # Number of instructions issued per FU type, per thread (Count)
system.cpu1.statIssuedInstType_0::FloatDiv            0      0.00%     67.64% # Number of instructions issued per FU type, per thread (Count)
system.cpu1.statIssuedInstType_0::FloatMisc            0      0.00%     67.64% # Number of instructions issued per FU type, per thread (Count)
system.cpu1.statIssuedInstType_0::FloatSqrt            0      0.00%     67.64% # Number of instructions issued per FU type, per thread (Count)
system.cpu1.statIssuedInstType_0::SimdAdd         7049      0.01%     67.64% # Number of instructions issued per FU type, per thread (Count)
system.cpu1.statIssuedInstType_0::SimdAddAcc            0      0.00%     67.64% # Number of instructions issued per FU type, per thread (Count)
system.cpu1.statIssuedInstType_0::SimdAlu        15298      0.02%     67.66% # Number of instructions issued per FU type, per thread (Count)
system.cpu1.statIssuedInstType_0::SimdCmp           12      0.00%     67.66% # Number of instructions issued per FU type, per thread (Count)
system.cpu1.statIssuedInstType_0::SimdCvt        14985      0.02%     67.68% # Number of instructions issued per FU type, per thread (Count)
system.cpu1.statIssuedInstType_0::SimdMisc        14657      0.02%     67.70% # Number of instructions issued per FU type, per thread (Count)
system.cpu1.statIssuedInstType_0::SimdMult            0      0.00%     67.70% # Number of instructions issued per FU type, per thread (Count)
system.cpu1.statIssuedInstType_0::SimdMultAcc            0      0.00%     67.70% # Number of instructions issued per FU type, per thread (Count)
system.cpu1.statIssuedInstType_0::SimdShift         2261      0.00%     67.70% # Number of instructions issued per FU type, per thread (Count)
system.cpu1.statIssuedInstType_0::SimdShiftAcc            0      0.00%     67.70% # Number of instructions issued per FU type, per thread (Count)
system.cpu1.statIssuedInstType_0::SimdDiv            0      0.00%     67.70% # Number of instructions issued per FU type, per thread (Count)
system.cpu1.statIssuedInstType_0::SimdSqrt            0      0.00%     67.70% # Number of instructions issued per FU type, per thread (Count)
system.cpu1.statIssuedInstType_0::SimdFloatAdd           44      0.00%     67.70% # Number of instructions issued per FU type, per thread (Count)
system.cpu1.statIssuedInstType_0::SimdFloatAlu            0      0.00%     67.70% # Number of instructions issued per FU type, per thread (Count)
system.cpu1.statIssuedInstType_0::SimdFloatCmp            0      0.00%     67.70% # Number of instructions issued per FU type, per thread (Count)
system.cpu1.statIssuedInstType_0::SimdFloatCvt           52      0.00%     67.70% # Number of instructions issued per FU type, per thread (Count)
system.cpu1.statIssuedInstType_0::SimdFloatDiv           13      0.00%     67.70% # Number of instructions issued per FU type, per thread (Count)
system.cpu1.statIssuedInstType_0::SimdFloatMisc            0      0.00%     67.70% # Number of instructions issued per FU type, per thread (Count)
system.cpu1.statIssuedInstType_0::SimdFloatMult           58      0.00%     67.70% # Number of instructions issued per FU type, per thread (Count)
system.cpu1.statIssuedInstType_0::SimdFloatMultAcc            0      0.00%     67.70% # Number of instructions issued per FU type, per thread (Count)
system.cpu1.statIssuedInstType_0::SimdFloatSqrt            0      0.00%     67.70% # Number of instructions issued per FU type, per thread (Count)
system.cpu1.statIssuedInstType_0::SimdReduceAdd            0      0.00%     67.70% # Number of instructions issued per FU type, per thread (Count)
system.cpu1.statIssuedInstType_0::SimdReduceAlu            0      0.00%     67.70% # Number of instructions issued per FU type, per thread (Count)
system.cpu1.statIssuedInstType_0::SimdReduceCmp            0      0.00%     67.70% # Number of instructions issued per FU type, per thread (Count)
system.cpu1.statIssuedInstType_0::SimdFloatReduceAdd            0      0.00%     67.70% # Number of instructions issued per FU type, per thread (Count)
system.cpu1.statIssuedInstType_0::SimdFloatReduceCmp            0      0.00%     67.70% # Number of instructions issued per FU type, per thread (Count)
system.cpu1.statIssuedInstType_0::SimdAes            0      0.00%     67.70% # Number of instructions issued per FU type, per thread (Count)
system.cpu1.statIssuedInstType_0::SimdAesMix            0      0.00%     67.70% # Number of instructions issued per FU type, per thread (Count)
system.cpu1.statIssuedInstType_0::SimdSha1Hash            0      0.00%     67.70% # Number of instructions issued per FU type, per thread (Count)
system.cpu1.statIssuedInstType_0::SimdSha1Hash2            0      0.00%     67.70% # Number of instructions issued per FU type, per thread (Count)
system.cpu1.statIssuedInstType_0::SimdSha256Hash            0      0.00%     67.70% # Number of instructions issued per FU type, per thread (Count)
system.cpu1.statIssuedInstType_0::SimdSha256Hash2            0      0.00%     67.70% # Number of instructions issued per FU type, per thread (Count)
system.cpu1.statIssuedInstType_0::SimdShaSigma2            0      0.00%     67.70% # Number of instructions issued per FU type, per thread (Count)
system.cpu1.statIssuedInstType_0::SimdShaSigma3            0      0.00%     67.70% # Number of instructions issued per FU type, per thread (Count)
system.cpu1.statIssuedInstType_0::SimdPredAlu            0      0.00%     67.70% # Number of instructions issued per FU type, per thread (Count)
system.cpu1.statIssuedInstType_0::MemRead     24102818     28.58%     96.28% # Number of instructions issued per FU type, per thread (Count)
system.cpu1.statIssuedInstType_0::MemWrite      3094590      3.67%     99.95% # Number of instructions issued per FU type, per thread (Count)
system.cpu1.statIssuedInstType_0::FloatMemRead        22887      0.03%     99.98% # Number of instructions issued per FU type, per thread (Count)
system.cpu1.statIssuedInstType_0::FloatMemWrite        15889      0.02%    100.00% # Number of instructions issued per FU type, per thread (Count)
system.cpu1.statIssuedInstType_0::IprAccess            0      0.00%    100.00% # Number of instructions issued per FU type, per thread (Count)
system.cpu1.statIssuedInstType_0::InstPrefetch            0      0.00%    100.00% # Number of instructions issued per FU type, per thread (Count)
system.cpu1.statIssuedInstType_0::total      84324515                       # Number of instructions issued per FU type, per thread (Count)
system.cpu1.issueRate                        1.727011                       # Inst issue rate ((Count/Cycle))
system.cpu1.fuBusy                            1898668                       # FU busy when requested (Count)
system.cpu1.fuBusyRate                       0.022516                       # FU busy rate (busy events/executed inst) ((Count/Count))
system.cpu1.intInstQueueReads               217779053                       # Number of integer instruction queue reads (Count)
system.cpu1.intInstQueueWrites               86389356                       # Number of integer instruction queue writes (Count)
system.cpu1.intInstQueueWakeupAccesses       84140068                       # Number of integer instruction queue wakeup accesses (Count)
system.cpu1.fpInstQueueReads                   217463                       # Number of floating instruction queue reads (Count)
system.cpu1.fpInstQueueWrites                  153300                       # Number of floating instruction queue writes (Count)
system.cpu1.fpInstQueueWakeupAccesses          103973                       # Number of floating instruction queue wakeup accesses (Count)
system.cpu1.vecInstQueueReads                       0                       # Number of vector instruction queue reads (Count)
system.cpu1.vecInstQueueWrites                      0                       # Number of vector instruction queue writes (Count)
system.cpu1.vecInstQueueWakeupAccesses              0                       # Number of vector instruction queue wakeup accesses (Count)
system.cpu1.intAluAccesses                   86085976                       # Number of integer alu accesses (Count)
system.cpu1.fpAluAccesses                      109396                       # Number of floating point alu accesses (Count)
system.cpu1.vecAluAccesses                          0                       # Number of vector alu accesses (Count)
system.cpu1.numInsts                         84294293                       # Number of executed instructions (Count)
system.cpu1.numLoadInsts                     24117328                       # Number of load instructions executed (Count)
system.cpu1.numSquashedInsts                    30216                       # Number of squashed instructions skipped in execute (Count)
system.cpu1.numSwp                                  0                       # Number of swp insts executed (Count)
system.cpu1.numNop                                  0                       # Number of nop insts executed (Count)
system.cpu1.numRefs                          27225420                       # Number of memory reference insts executed (Count)
system.cpu1.numBranches                       8422401                       # Number of branches executed (Count)
[...]
system.ruby.network.ext_out_link_utilization     12078018                       (Unspecified)
system.ruby.network.flit_network_latency |400079868000                       |538158776000                       | 48426169000                       (Unspecified)
system.ruby.network.flit_queueing_latency |  5349126500                       |  4432397000                       |   349163000                       (Unspecified)
system.ruby.network.flits_injected       |     3882426     32.14%     32.14% |     7497266     62.07%     94.22% |      698326      5.78%    100.00% (Unspecified)
system.ruby.network.flits_injected::total     12078018                       (Unspecified)
system.ruby.network.flits_received       |     3882426     32.14%     32.14% |     7497266     62.07%     94.22% |      698326      5.78%    100.00% (Unspecified)
system.ruby.network.flits_received::total     12078018                       (Unspecified)
system.ruby.network.int_link_utilization     30592968                       (Unspecified)
system.ruby.network.packet_network_latency |194228769000                       |175369333000                       | 48426169000                       (Unspecified)
system.ruby.network.packet_queueing_latency |  3255918500                       |  1176161000                       |   349163000                       (Unspecified)
system.ruby.network.packets_injected     |     2051586     42.73%     42.73% |     2051590     42.73%     85.46% |      698326     14.54%    100.00% (Unspecified)
system.ruby.network.packets_injected::total      4801502                       (Unspecified)
system.ruby.network.packets_received     |     2051586     42.73%     42.73% |     2051590     42.73%     85.46% |      698326     14.54%    100.00% (Unspecified)
system.ruby.network.packets_received::total      4801502                       (Unspecified)
system.ruby.network.routers00.Var_1                 3                       (Unspecified)
system.ruby.network.routers00.Var_2              2811                       (Unspecified)
system.ruby.network.routers00.Var_3              7230                       (Unspecified)
system.ruby.network.routers00.all_counts       133596                       (Unspecified)
system.ruby.network.routers00.buffer_reads      1311012                       (Unspecified)
system.ruby.network.routers00.buffer_writes      1311012                       (Unspecified)
system.ruby.network.routers00.crossbar_activity      1311012                       (Unspecified)
system.ruby.network.routers00.detour_counts         3575                       (Unspecified)
system.ruby.network.routers00.regular_var            0                       (Unspecified)
system.ruby.network.routers00.risk_counts         7238                       (Unspecified)
system.ruby.network.routers00.sw_input_arbiter_activity      1316567                       (Unspecified)
system.ruby.network.routers00.sw_output_arbiter_activity      1311012                       (Unspecified)
system.ruby.network.routers01.Var_1                 2                       (Unspecified)
system.ruby.network.routers01.Var_2              2828                       (Unspecified)
system.ruby.network.routers01.Var_3             10816                       (Unspecified)
system.ruby.network.routers01.all_counts       133695                       (Unspecified)
system.ruby.network.routers01.buffer_reads      3021487                       (Unspecified)
system.ruby.network.routers01.buffer_writes      3021487                       (Unspecified)
system.ruby.network.routers01.crossbar_activity      3021487                       (Unspecified)
system.ruby.network.routers01.detour_counts         5407                       (Unspecified)
system.ruby.network.routers01.regular_var            0                       (Unspecified)
system.ruby.network.routers01.risk_counts        10847                       (Unspecified)
system.ruby.network.routers01.sw_input_arbiter_activity      3049199                       (Unspecified)
system.ruby.network.routers01.sw_output_arbiter_activity      3021487                       (Unspecified)
system.ruby.network.routers02.Var_1                 4                       (Unspecified)
system.ruby.network.routers02.Var_2              2890                       (Unspecified)
system.ruby.network.routers02.Var_3             11146                       (Unspecified)
system.ruby.network.routers02.all_counts       133696                       (Unspecified)
system.ruby.network.routers02.buffer_reads      2326876                       (Unspecified)
system.ruby.network.routers02.buffer_writes      2326876                       (Unspecified)
system.ruby.network.routers02.crossbar_activity      2326876                       (Unspecified)
system.ruby.network.routers02.detour_counts         5596                       (Unspecified)
system.ruby.network.routers02.regular_var            0                       (Unspecified)
system.ruby.network.routers02.risk_counts        11174                       (Unspecified)
system.ruby.network.routers02.sw_input_arbiter_activity      2344487                       (Unspecified)
system.ruby.network.routers02.sw_output_arbiter_activity      2326876                       (Unspecified)
system.ruby.network.routers03.Var_1                 1                       (Unspecified)
system.ruby.network.routers03.Var_2              2850                       (Unspecified)
system.ruby.network.routers03.Var_3              7632                       (Unspecified)
system.ruby.network.routers03.all_counts       133685                       (Unspecified)
system.ruby.network.routers03.buffer_reads      2488848                       (Unspecified)
system.ruby.network.routers03.buffer_writes      2488848                       (Unspecified)
system.ruby.network.routers03.crossbar_activity      2488848                       (Unspecified)
system.ruby.network.routers03.detour_counts         3848                       (Unspecified)
system.ruby.network.routers03.regular_var            0                       (Unspecified)
system.ruby.network.routers03.risk_counts         7651                       (Unspecified)
system.ruby.network.routers03.sw_input_arbiter_activity      2505786                       (Unspecified)
system.ruby.network.routers03.sw_output_arbiter_activity      2488848                       (Unspecified)
system.ruby.network.routers04.Var_1                 4                       (Unspecified)
system.ruby.network.routers04.Var_2              2852                       (Unspecified)
system.ruby.network.routers04.Var_3             11331                       (Unspecified)
system.ruby.network.routers04.all_counts       133640                       (Unspecified)
system.ruby.network.routers04.buffer_reads      1756155                       (Unspecified)
system.ruby.network.routers04.buffer_writes      1756155                       (Unspecified)
system.ruby.network.routers04.crossbar_activity      1756155                       (Unspecified)
system.ruby.network.routers04.detour_counts         5696                       (Unspecified)
system.ruby.network.routers04.regular_var            0                       (Unspecified)
system.ruby.network.routers04.risk_counts        11347                       (Unspecified)
system.ruby.network.routers04.sw_input_arbiter_activity      1767234                       (Unspecified)
system.ruby.network.routers04.sw_output_arbiter_activity      1756155                       (Unspecified)
system.ruby.network.routers05.Var_1                 2                       (Unspecified)
system.ruby.network.routers05.Var_2              2824                       (Unspecified)
system.ruby.network.routers05.Var_3             38447                       (Unspecified)
system.ruby.network.routers05.all_counts       133726                       (Unspecified)
system.ruby.network.routers05.buffer_reads      4081124                       (Unspecified)
system.ruby.network.routers05.buffer_writes      4081124                       (Unspecified)
system.ruby.network.routers05.crossbar_activity      4081124                       (Unspecified)
system.ruby.network.routers05.detour_counts        19318                       (Unspecified)
system.ruby.network.routers05.regular_var            0                       (Unspecified)
system.ruby.network.routers05.risk_counts        38462                       (Unspecified)
system.ruby.network.routers05.sw_input_arbiter_activity      4130670                       (Unspecified)
system.ruby.network.routers05.sw_output_arbiter_activity      4081124                       (Unspecified)
system.ruby.network.routers06.Var_1                 5                       (Unspecified)
system.ruby.network.routers06.Var_2              2843                       (Unspecified)
system.ruby.network.routers06.Var_3             14509                       (Unspecified)
system.ruby.network.routers06.all_counts       133747                       (Unspecified)
system.ruby.network.routers06.buffer_reads      2798739                       (Unspecified)
system.ruby.network.routers06.buffer_writes      2798739                       (Unspecified)
system.ruby.network.routers06.crossbar_activity      2798739                       (Unspecified)
system.ruby.network.routers06.detour_counts         7283                       (Unspecified)
system.ruby.network.routers06.regular_var            0                       (Unspecified)
system.ruby.network.routers06.risk_counts        14539                       (Unspecified)
system.ruby.network.routers06.sw_input_arbiter_activity      2822306                       (Unspecified)
system.ruby.network.routers06.sw_output_arbiter_activity      2798739                       (Unspecified)
system.ruby.network.routers07.Var_1                 4                       (Unspecified)
system.ruby.network.routers07.Var_2              2880                       (Unspecified)
system.ruby.network.routers07.Var_3             35296                       (Unspecified)
system.ruby.network.routers07.all_counts       133707                       (Unspecified)
system.ruby.network.routers07.buffer_reads      3546090                       (Unspecified)
system.ruby.network.routers07.buffer_writes      3546090                       (Unspecified)
system.ruby.network.routers07.crossbar_activity      3546090                       (Unspecified)
system.ruby.network.routers07.detour_counts        17552                       (Unspecified)
system.ruby.network.routers07.regular_var            0                       (Unspecified)
system.ruby.network.routers07.risk_counts        35305                       (Unspecified)
system.ruby.network.routers07.sw_input_arbiter_activity      3585580                       (Unspecified)
system.ruby.network.routers07.sw_output_arbiter_activity      3546090                       (Unspecified)
system.ruby.network.routers08.Var_1                 3                       (Unspecified)
system.ruby.network.routers08.Var_2              2859                       (Unspecified)
system.ruby.network.routers08.Var_3             11447                       (Unspecified)
system.ruby.network.routers08.all_counts       133712                       (Unspecified)
system.ruby.network.routers08.buffer_reads      1756264                       (Unspecified)
system.ruby.network.routers08.buffer_writes      1756264                       (Unspecified)
system.ruby.network.routers08.crossbar_activity      1756264                       (Unspecified)
system.ruby.network.routers08.detour_counts         5732                       (Unspecified)
system.ruby.network.routers08.regular_var            0                       (Unspecified)
system.ruby.network.routers08.risk_counts        11463                       (Unspecified)
system.ruby.network.routers08.sw_input_arbiter_activity      1767607                       (Unspecified)
system.ruby.network.routers08.sw_output_arbiter_activity      1756264                       (Unspecified)
system.ruby.network.routers09.Var_1                 6                       (Unspecified)
system.ruby.network.routers09.Var_2              2816                       (Unspecified)
system.ruby.network.routers09.Var_3             38196                       (Unspecified)
system.ruby.network.routers09.all_counts       133754                       (Unspecified)
system.ruby.network.routers09.buffer_reads      4087672                       (Unspecified)
system.ruby.network.routers09.buffer_writes      4087672                       (Unspecified)
system.ruby.network.routers09.crossbar_activity      4087672                       (Unspecified)
system.ruby.network.routers09.detour_counts        19024                       (Unspecified)
system.ruby.network.routers09.regular_var            0                       (Unspecified)
system.ruby.network.routers09.risk_counts        38219                       (Unspecified)
system.ruby.network.routers09.sw_input_arbiter_activity      4137514                       (Unspecified)
system.ruby.network.routers09.sw_output_arbiter_activity      4087672                       (Unspecified)
system.ruby.network.routers10.Var_1                 2                       (Unspecified)
system.ruby.network.routers10.Var_2              2801                       (Unspecified)
system.ruby.network.routers10.Var_3             14509                       (Unspecified)
system.ruby.network.routers10.all_counts       133761                       (Unspecified)
system.ruby.network.routers10.buffer_reads      2802539                       (Unspecified)
system.ruby.network.routers10.buffer_writes      2802539                       (Unspecified)
system.ruby.network.routers10.crossbar_activity      2802539                       (Unspecified)
system.ruby.network.routers10.detour_counts         7253                       (Unspecified)
system.ruby.network.routers10.regular_var            0                       (Unspecified)
system.ruby.network.routers10.risk_counts        14539                       (Unspecified)
system.ruby.network.routers10.sw_input_arbiter_activity      2825756                       (Unspecified)
system.ruby.network.routers10.sw_output_arbiter_activity      2802539                       (Unspecified)
system.ruby.network.routers11.Var_1                 2                       (Unspecified)
system.ruby.network.routers11.Var_2              2852                       (Unspecified)
system.ruby.network.routers11.Var_3             35197                       (Unspecified)
system.ruby.network.routers11.all_counts       133751                       (Unspecified)
system.ruby.network.routers11.buffer_reads      3550198                       (Unspecified)
system.ruby.network.routers11.buffer_writes      3550198                       (Unspecified)
system.ruby.network.routers11.crossbar_activity      3550198                       (Unspecified)
system.ruby.network.routers11.detour_counts        17638                       (Unspecified)
system.ruby.network.routers11.regular_var            0                       (Unspecified)
system.ruby.network.routers11.risk_counts        35213                       (Unspecified)
system.ruby.network.routers11.sw_input_arbiter_activity      3589429                       (Unspecified)
system.ruby.network.routers11.sw_output_arbiter_activity      3550198                       (Unspecified)
system.ruby.network.routers12.Var_1                 3                       (Unspecified)
system.ruby.network.routers12.Var_2              2855                       (Unspecified)
system.ruby.network.routers12.Var_3              7337                       (Unspecified)
system.ruby.network.routers12.all_counts       133619                       (Unspecified)
system.ruby.network.routers12.buffer_reads      1306592                       (Unspecified)
system.ruby.network.routers12.buffer_writes      1306592                       (Unspecified)
system.ruby.network.routers12.crossbar_activity      1306592                       (Unspecified)
system.ruby.network.routers12.detour_counts         3650                       (Unspecified)
system.ruby.network.routers12.regular_var            0                       (Unspecified)
system.ruby.network.routers12.risk_counts         7359                       (Unspecified)
system.ruby.network.routers12.sw_input_arbiter_activity      1312201                       (Unspecified)
system.ruby.network.routers12.sw_output_arbiter_activity      1306592                       (Unspecified)
system.ruby.network.routers13.Var_1                 5                       (Unspecified)
system.ruby.network.routers13.Var_2              2843                       (Unspecified)
system.ruby.network.routers13.Var_3             10785                       (Unspecified)
system.ruby.network.routers13.all_counts       133713                       (Unspecified)
system.ruby.network.routers13.buffer_reads      3020496                       (Unspecified)
system.ruby.network.routers13.buffer_writes      3020496                       (Unspecified)
system.ruby.network.routers13.crossbar_activity      3020496                       (Unspecified)
system.ruby.network.routers13.detour_counts         5405                       (Unspecified)
system.ruby.network.routers13.regular_var            0                       (Unspecified)
system.ruby.network.routers13.risk_counts        10815                       (Unspecified)
system.ruby.network.routers13.sw_input_arbiter_activity      3047671                       (Unspecified)
system.ruby.network.routers13.sw_output_arbiter_activity      3020496                       (Unspecified)
system.ruby.network.routers14.Var_1                 3                       (Unspecified)
system.ruby.network.routers14.Var_2              2863                       (Unspecified)
system.ruby.network.routers14.Var_3             10993                       (Unspecified)
system.ruby.network.routers14.all_counts       133699                       (Unspecified)
system.ruby.network.routers14.buffer_reads      2325401                       (Unspecified)
system.ruby.network.routers14.buffer_writes      2325401                       (Unspecified)
system.ruby.network.routers14.crossbar_activity      2325401                       (Unspecified)
system.ruby.network.routers14.detour_counts         5489                       (Unspecified)
system.ruby.network.routers14.regular_var            0                       (Unspecified)
system.ruby.network.routers14.risk_counts        11015                       (Unspecified)
system.ruby.network.routers14.sw_input_arbiter_activity      2343213                       (Unspecified)
system.ruby.network.routers14.sw_output_arbiter_activity      2325401                       (Unspecified)
system.ruby.network.routers15.Var_1                 2                       (Unspecified)
system.ruby.network.routers15.Var_2              2857                       (Unspecified)
system.ruby.network.routers15.Var_3              7483                       (Unspecified)
system.ruby.network.routers15.all_counts       133716                       (Unspecified)
system.ruby.network.routers15.buffer_reads      2491493                       (Unspecified)
system.ruby.network.routers15.buffer_writes      2491493                       (Unspecified)
system.ruby.network.routers15.crossbar_activity      2491493                       (Unspecified)
system.ruby.network.routers15.detour_counts         3739                       (Unspecified)
system.ruby.network.routers15.regular_var            0                       (Unspecified)
system.ruby.network.routers15.risk_counts         7514                       (Unspecified)
system.ruby.network.routers15.sw_input_arbiter_activity      2508920                       (Unspecified)
system.ruby.network.routers15.sw_output_arbiter_activity      2491493                       (Unspecified)

---------- End Simulation Statistics   ----------
