
---------- Begin Simulation Statistics ----------
simSeconds                                   0.024481                       # Number of seconds simulated (Second)
simTicks                                  24480549000                       # Number of ticks simulated (Tick)
finalTick                                 24480549000                       # Number of ticks from beginning of simulation (restored from checkpoints and never reset) (Tick)
simFreq                                  1000000000000                       # The number of ticks per simulated second ((Tick/Second))
hostSeconds                                   4598.25                       # Real time elapsed on the host (Second)
hostTickRate                                  5323879                       # The number of ticks simulated per host second (ticks/s) ((Tick/Second))
hostMemory                                   12139552                       # Number of bytes of host memory used (Byte)
simInsts                                    745078770                       # Number of instructions simulated (Count)
simOps                                     1304059907                       # Number of ops (including micro ops) simulated (Count)
hostInstRate                                   162035                       # Simulator instruction rate (inst/s) ((Count/Second))
hostOpRate                                     283599                       # Simulator op (including micro ops) rate (op/s) ((Count/Second))
system.clk_domain.clock                          1000                       # Clock period in ticks (Tick)
system.cpu0.numCycles                        48961099                       # Number of cpu cycles simulated (Cycle)
system.cpu0.numWorkItemsStarted                     0                       # Number of work items this cpu started (Count)
system.cpu0.numWorkItemsCompleted                   0                       # Number of work items this cpu completed (Count)
system.cpu0.instsAdded                       76444851                       # Number of instructions added to the IQ (excludes non-spec) (Count)
system.cpu0.nonSpecInstsAdded                    1243                       # Number of non-speculative instructions added to the IQ (Count)
system.cpu0.instsIssued                      76038114                       # Number of instructions issued (Count)
system.cpu0.squashedInstsIssued                  2229                       # Number of squashed instructions issued (Count)
system.cpu0.squashedInstsExamined             1786885                       # Number of squashed instructions iterated over during squash; mainly for profiling (Count)
system.cpu0.squashedOperandsExamined          2472278                       # Number of squashed operands that are examined and possibly removed from graph (Count)
system.cpu0.squashedNonSpecRemoved                114                       # Number of squashed non-spec instructions that were removed (Count)
system.cpu0.numIssuedDist::samples           47494538                       # Number of insts issued each cycle (Count)
system.cpu0.numIssuedDist::mean              1.600986                       # Number of insts issued each cycle (Count)
system.cpu0.numIssuedDist::stdev             2.381164                       # Number of insts issued each cycle (Count)
system.cpu0.numIssuedDist::underflows               0      0.00%      0.00% # Number of insts issued each cycle (Count)
system.cpu0.numIssuedDist::0                 29459905     62.03%     62.03% # Number of insts issued each cycle (Count)
system.cpu0.numIssuedDist::1                  1833318      3.86%     65.89% # Number of insts issued each cycle (Count)
system.cpu0.numIssuedDist::2                  2515056      5.30%     71.18% # Number of insts issued each cycle (Count)
system.cpu0.numIssuedDist::3                  2266161      4.77%     75.95% # Number of insts issued each cycle (Count)
system.cpu0.numIssuedDist::4                  3086263      6.50%     82.45% # Number of insts issued each cycle (Count)
system.cpu0.numIssuedDist::5                  3410916      7.18%     89.63% # Number of insts issued each cycle (Count)
system.cpu0.numIssuedDist::6                  2560102      5.39%     95.03% # Number of insts issued each cycle (Count)
system.cpu0.numIssuedDist::7                  1286579      2.71%     97.73% # Number of insts issued each cycle (Count)
system.cpu0.numIssuedDist::8                  1076238      2.27%    100.00% # Number of insts issued each cycle (Count)
system.cpu0.numIssuedDist::overflows                0      0.00%    100.00% # Number of insts issued each cycle (Count)
system.cpu0.numIssuedDist::min_value                0                       # Number of insts issued each cycle (Count)
system.cpu0.numIssuedDist::max_value                8                       # Number of insts issued each cycle (Count)
system.cpu0.numIssuedDist::total             47494538                       # Number of insts issued each cycle (Count)
system.cpu0.statFuBusy::No_OpClass                  0      0.00%      0.00% # attempts to use FU when none available (Count)
system.cpu0.statFuBusy::IntAlu                 651423     39.89%     39.89% # attempts to use FU when none available (Count)
system.cpu0.statFuBusy::IntMult                     0      0.00%     39.89% # attempts to use FU when none available (Count)
system.cpu0.statFuBusy::IntDiv                      0      0.00%     39.89% # attempts to use FU when none available (Count)
system.cpu0.statFuBusy::FloatAdd                    0      0.00%     39.89% # attempts to use FU when none available (Count)
system.cpu0.statFuBusy::FloatCmp                    0      0.00%     39.89% # attempts to use FU when none available (Count)
system.cpu0.statFuBusy::FloatCvt                    0      0.00%     39.89% # attempts to use FU when none available (Count)
system.cpu0.statFuBusy::FloatMult                   0      0.00%     39.89% # attempts to use FU when none available (Count)
system.cpu0.statFuBusy::FloatMultAcc                0      0.00%     39.89% # attempts to use FU when none available (Count)
system.cpu0.statFuBusy::FloatDiv                    0      0.00%     39.89% # attempts to use FU when none available (Count)
system.cpu0.statFuBusy::FloatMisc                   0      0.00%     39.89% # attempts to use FU when none available (Count)
system.cpu0.statFuBusy::FloatSqrt                   0      0.00%     39.89% # attempts to use FU when none available (Count)
system.cpu0.statFuBusy::SimdAdd                    12      0.00%     39.89% # attempts to use FU when none available (Count)
system.cpu0.statFuBusy::SimdAddAcc                  0      0.00%     39.89% # attempts to use FU when none available (Count)
system.cpu0.statFuBusy::SimdAlu                   119      0.01%     39.90% # attempts to use FU when none available (Count)
system.cpu0.statFuBusy::SimdCmp                     0      0.00%     39.90% # attempts to use FU when none available (Count)
system.cpu0.statFuBusy::SimdCvt                   246      0.02%     39.91% # attempts to use FU when none available (Count)
system.cpu0.statFuBusy::SimdMisc                   23      0.00%     39.91% # attempts to use FU when none available (Count)
system.cpu0.statFuBusy::SimdMult                    0      0.00%     39.91% # attempts to use FU when none available (Count)
system.cpu0.statFuBusy::SimdMultAcc                 0      0.00%     39.91% # attempts to use FU when none available (Count)
system.cpu0.statFuBusy::SimdShift                 148      0.01%     39.92% # attempts to use FU when none available (Count)
system.cpu0.statFuBusy::SimdShiftAcc                0      0.00%     39.92% # attempts to use FU when none available (Count)
system.cpu0.statFuBusy::SimdDiv                     0      0.00%     39.92% # attempts to use FU when none available (Count)
system.cpu0.statFuBusy::SimdSqrt                    0      0.00%     39.92% # attempts to use FU when none available (Count)
system.cpu0.statFuBusy::SimdFloatAdd                0      0.00%     39.92% # attempts to use FU when none available (Count)
system.cpu0.statFuBusy::SimdFloatAlu                0      0.00%     39.92% # attempts to use FU when none available (Count)
system.cpu0.statFuBusy::SimdFloatCmp                0      0.00%     39.92% # attempts to use FU when none available (Count)
system.cpu0.statFuBusy::SimdFloatCvt                0      0.00%     39.92% # attempts to use FU when none available (Count)
system.cpu0.statFuBusy::SimdFloatDiv                0      0.00%     39.92% # attempts to use FU when none available (Count)
system.cpu0.statFuBusy::SimdFloatMisc               0      0.00%     39.92% # attempts to use FU when none available (Count)
system.cpu0.statFuBusy::SimdFloatMult               0      0.00%     39.92% # attempts to use FU when none available (Count)
system.cpu0.statFuBusy::SimdFloatMultAcc            0      0.00%     39.92% # attempts to use FU when none available (Count)
system.cpu0.statFuBusy::SimdFloatSqrt               0      0.00%     39.92% # attempts to use FU when none available (Count)
system.cpu0.statFuBusy::SimdReduceAdd               0      0.00%     39.92% # attempts to use FU when none available (Count)
system.cpu0.statFuBusy::SimdReduceAlu               0      0.00%     39.92% # attempts to use FU when none available (Count)
system.cpu0.statFuBusy::SimdReduceCmp               0      0.00%     39.92% # attempts to use FU when none available (Count)
system.cpu0.statFuBusy::SimdFloatReduceAdd            0      0.00%     39.92% # attempts to use FU when none available (Count)
system.cpu0.statFuBusy::SimdFloatReduceCmp            0      0.00%     39.92% # attempts to use FU when none available (Count)
system.cpu0.statFuBusy::SimdAes                     0      0.00%     39.92% # attempts to use FU when none available (Count)
system.cpu0.statFuBusy::SimdAesMix                  0      0.00%     39.92% # attempts to use FU when none available (Count)
system.cpu0.statFuBusy::SimdSha1Hash                0      0.00%     39.92% # attempts to use FU when none available (Count)
system.cpu0.statFuBusy::SimdSha1Hash2               0      0.00%     39.92% # attempts to use FU when none available (Count)
system.cpu0.statFuBusy::SimdSha256Hash              0      0.00%     39.92% # attempts to use FU when none available (Count)
system.cpu0.statFuBusy::SimdSha256Hash2             0      0.00%     39.92% # attempts to use FU when none available (Count)
system.cpu0.statFuBusy::SimdShaSigma2               0      0.00%     39.92% # attempts to use FU when none available (Count)
system.cpu0.statFuBusy::SimdShaSigma3               0      0.00%     39.92% # attempts to use FU when none available (Count)
system.cpu0.statFuBusy::SimdPredAlu                 0      0.00%     39.92% # attempts to use FU when none available (Count)
system.cpu0.statFuBusy::MemRead                967335     59.23%     99.15% # attempts to use FU when none available (Count)
system.cpu0.statFuBusy::MemWrite                12779      0.78%     99.94% # attempts to use FU when none available (Count)
system.cpu0.statFuBusy::FloatMemRead              722      0.04%     99.98% # attempts to use FU when none available (Count)
system.cpu0.statFuBusy::FloatMemWrite             328      0.02%    100.00% # attempts to use FU when none available (Count)
system.cpu0.statFuBusy::IprAccess                   0      0.00%    100.00% # attempts to use FU when none available (Count)
system.cpu0.statFuBusy::InstPrefetch                0      0.00%    100.00% # attempts to use FU when none available (Count)
system.cpu0.statIssuedInstType_0::No_OpClass        27783      0.04%      0.04% # Number of instructions issued per FU type, per thread (Count)
system.cpu0.statIssuedInstType_0::IntAlu     51358679     67.54%     67.58% # Number of instructions issued per FU type, per thread (Count)
system.cpu0.statIssuedInstType_0::IntMult        35820      0.05%     67.63% # Number of instructions issued per FU type, per thread (Count)
system.cpu0.statIssuedInstType_0::IntDiv        39994      0.05%     67.68% # Number of instructions issued per FU type, per thread (Count)
system.cpu0.statIssuedInstType_0::FloatAdd         8663      0.01%     67.69% # Number of instructions issued per FU type, per thread (Count)
system.cpu0.statIssuedInstType_0::FloatCmp            0      0.00%     67.69% # Number of instructions issued per FU type, per thread (Count)
system.cpu0.statIssuedInstType_0::FloatCvt         1712      0.00%     67.69% # Number of instructions issued per FU type, per thread (Count)
system.cpu0.statIssuedInstType_0::FloatMult            0      0.00%     67.69% # Number of instructions issued per FU type, per thread (Count)
system.cpu0.statIssuedInstType_0::FloatMultAcc            0      0.00%     67.69% # Number of instructions issued per FU type, per thread (Count)
system.cpu0.statIssuedInstType_0::FloatDiv            0      0.00%     67.69% # Number of instructions issued per FU type, per thread (Count)
system.cpu0.statIssuedInstType_0::FloatMisc            0      0.00%     67.69% # Number of instructions issued per FU type, per thread (Count)
system.cpu0.statIssuedInstType_0::FloatSqrt            0      0.00%     67.69% # Number of instructions issued per FU type, per thread (Count)
system.cpu0.statIssuedInstType_0::SimdAdd         7056      0.01%     67.70% # Number of instructions issued per FU type, per thread (Count)
system.cpu0.statIssuedInstType_0::SimdAddAcc            0      0.00%     67.70% # Number of instructions issued per FU type, per thread (Count)
system.cpu0.statIssuedInstType_0::SimdAlu        15335      0.02%     67.72% # Number of instructions issued per FU type, per thread (Count)
system.cpu0.statIssuedInstType_0::SimdCmp           12      0.00%     67.72% # Number of instructions issued per FU type, per thread (Count)
system.cpu0.statIssuedInstType_0::SimdCvt        15002      0.02%     67.74% # Number of instructions issued per FU type, per thread (Count)
system.cpu0.statIssuedInstType_0::SimdMisc        14677      0.02%     67.76% # Number of instructions issued per FU type, per thread (Count)
system.cpu0.statIssuedInstType_0::SimdMult            0      0.00%     67.76% # Number of instructions issued per FU type, per thread (Count)
system.cpu0.statIssuedInstType_0::SimdMultAcc            0      0.00%     67.76% # Number of instructions issued per FU type, per thread (Count)
system.cpu0.statIssuedInstType_0::SimdShift         2258      0.00%     67.76% # Number of instructions issued per FU type, per thread (Count)
system.cpu0.statIssuedInstType_0::SimdShiftAcc            0      0.00%     67.76% # Number of instructions issued per FU type, per thread (Count)
system.cpu0.statIssuedInstType_0::SimdDiv            0      0.00%     67.76% # Number of instructions issued per FU type, per thread (Count)
system.cpu0.statIssuedInstType_0::SimdSqrt            0      0.00%     67.76% # Number of instructions issued per FU type, per thread (Count)
system.cpu0.statIssuedInstType_0::SimdFloatAdd           44      0.00%     67.76% # Number of instructions issued per FU type, per thread (Count)
system.cpu0.statIssuedInstType_0::SimdFloatAlu            0      0.00%     67.76% # Number of instructions issued per FU type, per thread (Count)
system.cpu0.statIssuedInstType_0::SimdFloatCmp            0      0.00%     67.76% # Number of instructions issued per FU type, per thread (Count)
system.cpu0.statIssuedInstType_0::SimdFloatCvt           55      0.00%     67.76% # Number of instructions issued per FU type, per thread (Count)
system.cpu0.statIssuedInstType_0::SimdFloatDiv           13      0.00%     67.76% # Number of instructions issued per FU type, per thread (Count)
system.cpu0.statIssuedInstType_0::SimdFloatMisc            0      0.00%     67.76% # Number of instructions issued per FU type, per thread (Count)
system.cpu0.statIssuedInstType_0::SimdFloatMult           58      0.00%     67.76% # Number of instructions issued per FU type, per thread (Count)
system.cpu0.statIssuedInstType_0::SimdFloatMultAcc            0      0.00%     67.76% # Number of instructions issued per FU type, per thread (Count)
system.cpu0.statIssuedInstType_0::SimdFloatSqrt            0      0.00%     67.76% # Number of instructions issued per FU type, per thread (Count)
system.cpu0.statIssuedInstType_0::SimdReduceAdd            0      0.00%     67.76% # Number of instructions issued per FU type, per thread (Count)
system.cpu0.statIssuedInstType_0::SimdReduceAlu            0      0.00%     67.76% # Number of instructions issued per FU type, per thread (Count)
system.cpu0.statIssuedInstType_0::SimdReduceCmp            0      0.00%     67.76% # Number of instructions issued per FU type, per thread (Count)
system.cpu0.statIssuedInstType_0::SimdFloatReduceAdd            0      0.00%     67.76% # Number of instructions issued per FU type, per thread (Count)
system.cpu0.statIssuedInstType_0::SimdFloatReduceCmp            0      0.00%     67.76% # Number of instructions issued per FU type, per thread (Count)
system.cpu0.statIssuedInstType_0::SimdAes            0      0.00%     67.76% # Number of instructions issued per FU type, per thread (Count)
system.cpu0.statIssuedInstType_0::SimdAesMix            0      0.00%     67.76% # Number of instructions issued per FU type, per thread (Count)
system.cpu0.statIssuedInstType_0::SimdSha1Hash            0      0.00%     67.76% # Number of instructions issued per FU type, per thread (Count)
system.cpu0.statIssuedInstType_0::SimdSha1Hash2            0      0.00%     67.76% # Number of instructions issued per FU type, per thread (Count)
system.cpu0.statIssuedInstType_0::SimdSha256Hash            0      0.00%     67.76% # Number of instructions issued per FU type, per thread (Count)
system.cpu0.statIssuedInstType_0::SimdSha256Hash2            0      0.00%     67.76% # Number of instructions issued per FU type, per thread (Count)
system.cpu0.statIssuedInstType_0::SimdShaSigma2            0      0.00%     67.76% # Number of instructions issued per FU type, per thread (Count)
system.cpu0.statIssuedInstType_0::SimdShaSigma3            0      0.00%     67.76% # Number of instructions issued per FU type, per thread (Count)
system.cpu0.statIssuedInstType_0::SimdPredAlu            0      0.00%     67.76% # Number of instructions issued per FU type, per thread (Count)
system.cpu0.statIssuedInstType_0::MemRead     21658197     28.48%     96.25% # Number of instructions issued per FU type, per thread (Count)
system.cpu0.statIssuedInstType_0::MemWrite      2813869      3.70%     99.95% # Number of instructions issued per FU type, per thread (Count)
system.cpu0.statIssuedInstType_0::FloatMemRead        22995      0.03%     99.98% # Number of instructions issued per FU type, per thread (Count)
system.cpu0.statIssuedInstType_0::FloatMemWrite        15892      0.02%    100.00% # Number of instructions issued per FU type, per thread (Count)
system.cpu0.statIssuedInstType_0::IprAccess            0      0.00%    100.00% # Number of instructions issued per FU type, per thread (Count)
system.cpu0.statIssuedInstType_0::InstPrefetch            0      0.00%    100.00% # Number of instructions issued per FU type, per thread (Count)
system.cpu0.statIssuedInstType_0::total      76038114                       # Number of instructions issued per FU type, per thread (Count)
system.cpu0.issueRate                        1.553031                       # Inst issue rate ((Count/Cycle))
system.cpu0.fuBusy                            1633135                       # FU busy when requested (Count)
system.cpu0.fuBusyRate                       0.021478                       # FU busy rate (busy events/executed inst) ((Count/Count))
system.cpu0.intInstQueueReads               200988163                       # Number of integer instruction queue reads (Count)
system.cpu0.intInstQueueWrites               78079506                       # Number of integer instruction queue writes (Count)
system.cpu0.intInstQueueWakeupAccesses       75853993                       # Number of integer instruction queue wakeup accesses (Count)
system.cpu0.fpInstQueueReads                   217966                       # Number of floating instruction queue reads (Count)
system.cpu0.fpInstQueueWrites                  154126                       # Number of floating instruction queue writes (Count)
system.cpu0.fpInstQueueWakeupAccesses          104165                       # Number of floating instruction queue wakeup accesses (Count)
system.cpu0.vecInstQueueReads                       0                       # Number of vector instruction queue reads (Count)
system.cpu0.vecInstQueueWrites                      0                       # Number of vector instruction queue writes (Count)
system.cpu0.vecInstQueueWakeupAccesses              0                       # Number of vector instruction queue wakeup accesses (Count)
system.cpu0.intAluAccesses                   77533812                       # Number of integer alu accesses (Count)
system.cpu0.fpAluAccesses                      109654                       # Number of floating point alu accesses (Count)
system.cpu0.vecAluAccesses                          0                       # Number of vector alu accesses (Count)
system.cpu0.numInsts                         76007851                       # Number of executed instructions (Count)
system.cpu0.numLoadInsts                     21672974                       # Number of load instructions executed (Count)
system.cpu0.numSquashedInsts                    30262                       # Number of squashed instructions skipped in execute (Count)
system.cpu0.numSwp                                  0                       # Number of swp insts executed (Count)
system.cpu0.numNop                                  0                       # Number of nop insts executed (Count)
system.cpu0.numRefs                          24500304                       # Number of memory reference insts executed (Count)
system.cpu0.numBranches                       7589200                       # Number of branches executed (Count)
system.cpu0.numStoreInsts                     2827330                       # Number of stores executed (Count)
system.cpu0.numRate                          1.552413                       # Inst execution rate ((Count/Cycle))
system.cpu0.timesIdled                           2857                       # Number of times that the entire CPU went into an idle state and unscheduled itself (Count)
system.cpu0.idleCycles                        1466561                       # Total number of cycles that the CPU has spent unscheduled due to idling (Cycle)
system.cpu0.committedInsts                   42658262                       # Number of Instructions Simulated (Count)
system.cpu0.committedOps                     74659121                       # Number of Ops (including micro ops) Simulated (Count)
system.cpu0.cpi                              1.147752                       # CPI: Cycles Per Instruction ((Cycle/Count))
system.cpu0.totalCpi                         1.147752                       # CPI: Total CPI of All Threads ((Cycle/Count))
system.cpu0.ipc                              0.871268                       # IPC: Instructions Per Cycle ((Count/Cycle))
system.cpu0.totalIpc                         0.871268                       # IPC: Total IPC of All Threads ((Count/Cycle))
system.cpu0.intRegfileReads                  83298216                       # Number of integer regfile reads (Count)
system.cpu0.intRegfileWrites                 58401997                       # Number of integer regfile writes (Count)
system.cpu0.fpRegfileReads                     142138                       # Number of floating regfile reads (Count)
system.cpu0.fpRegfileWrites                     79910                       # Number of floating regfile writes (Count)
system.cpu0.ccRegfileReads                   39676529                       # number of cc regfile reads (Count)
system.cpu0.ccRegfileWrites                  32063164                       # number of cc regfile writes (Count)
system.cpu0.miscRegfileReads                 44197687                       # number of misc regfile reads (Count)
system.cpu0.miscRegfileWrites                     918                       # number of misc regfile writes (Count)
system.cpu0.MemDepUnit__0.insertedLoads      21718230                       # Number of loads inserted to the mem dependence unit. (Count)
system.cpu0.MemDepUnit__0.insertedStores      2845102                       # Number of stores inserted to the mem dependence unit. (Count)
system.cpu0.MemDepUnit__0.conflictingLoads      5237087                       # Number of conflicting loads. (Count)
system.cpu0.MemDepUnit__0.conflictingStores      1034372                       # Number of conflicting stores. (Count)
system.cpu0.MemDepUnit__1.insertedLoads             0                       # Number of loads inserted to the mem dependence unit. (Count)
system.cpu0.MemDepUnit__1.insertedStores            0                       # Number of stores inserted to the mem dependence unit. (Count)
system.cpu0.MemDepUnit__1.conflictingLoads            0                       # Number of conflicting loads. (Count)
system.cpu0.MemDepUnit__1.conflictingStores            0                       # Number of conflicting stores. (Count)
system.cpu0.MemDepUnit__2.insertedLoads             0                       # Number of loads inserted to the mem dependence unit. (Count)
system.cpu0.MemDepUnit__2.insertedStores            0                       # Number of stores inserted to the mem dependence unit. (Count)
system.cpu0.MemDepUnit__2.conflictingLoads            0                       # Number of conflicting loads. (Count)
system.cpu0.MemDepUnit__2.conflictingStores            0                       # Number of conflicting stores. (Count)
system.cpu0.MemDepUnit__3.insertedLoads             0                       # Number of loads inserted to the mem dependence unit. (Count)
system.cpu0.MemDepUnit__3.insertedStores            0                       # Number of stores inserted to the mem dependence unit. (Count)
system.cpu0.MemDepUnit__3.conflictingLoads            0                       # Number of conflicting loads. (Count)
system.cpu0.MemDepUnit__3.conflictingStores            0                       # Number of conflicting stores. (Count)
system.cpu0.branchPred.lookups                7734610                       # Number of BP lookups (Count)
system.cpu0.branchPred.condPredicted          7297040                       # Number of conditional branches predicted (Count)
system.cpu0.branchPred.condIncorrect            16866                       # Number of conditional branches incorrect (Count)
system.cpu0.branchPred.BTBLookups             4657350                       # Number of BTB lookups (Count)
system.cpu0.branchPred.BTBUpdates                8159                       # Number of BTB updates (Count)
system.cpu0.branchPred.BTBHits                4653304                       # Number of BTB hits (Count)
system.cpu0.branchPred.BTBHitRatio           0.999131                       # BTB Hit Ratio (Ratio)
system.cpu0.branchPred.RASUsed                  14840                       # Number of times the RAS was used to get a target. (Count)
system.cpu0.branchPred.RASIncorrect                12                       # Number of incorrect RAS predictions. (Count)
system.cpu0.branchPred.indirectLookups          11826                       # Number of indirect predictor lookups. (Count)
system.cpu0.branchPred.indirectHits              5016                       # Number of indirect target hits. (Count)
system.cpu0.branchPred.indirectMisses            6810                       # Number of indirect misses. (Count)
system.cpu0.branchPred.indirectMispredicted         1472                       # Number of mispredicted indirect branches. (Count)
system.cpu0.commit.commitSquashedInsts        1782082                       # The number of squashed insts skipped by commit (Count)
system.cpu0.commit.commitNonSpecStalls           1129                       # The number of times commit has been forced to stall to communicate backwards (Count)
system.cpu0.commit.branchMispredicts            17510                       # The number of times a branch was mispredicted (Count)
system.cpu0.commit.numCommittedDist::samples     47254374                       # Number of insts commited each cycle (Count)
system.cpu0.commit.numCommittedDist::mean     1.579941                       # Number of insts commited each cycle (Count)
system.cpu0.commit.numCommittedDist::stdev     2.842551                       # Number of insts commited each cycle (Count)
system.cpu0.commit.numCommittedDist::underflows            0      0.00%      0.00% # Number of insts commited each cycle (Count)
system.cpu0.commit.numCommittedDist::0       32711597     69.22%     69.22% # Number of insts commited each cycle (Count)
system.cpu0.commit.numCommittedDist::1        2018656      4.27%     73.50% # Number of insts commited each cycle (Count)
system.cpu0.commit.numCommittedDist::2        1985467      4.20%     77.70% # Number of insts commited each cycle (Count)
system.cpu0.commit.numCommittedDist::3        2164882      4.58%     82.28% # Number of insts commited each cycle (Count)
system.cpu0.commit.numCommittedDist::4         144640      0.31%     82.59% # Number of insts commited each cycle (Count)
system.cpu0.commit.numCommittedDist::5         282620      0.60%     83.18% # Number of insts commited each cycle (Count)
system.cpu0.commit.numCommittedDist::6        1604464      3.40%     86.58% # Number of insts commited each cycle (Count)
system.cpu0.commit.numCommittedDist::7         179943      0.38%     86.96% # Number of insts commited each cycle (Count)
system.cpu0.commit.numCommittedDist::8        6162105     13.04%    100.00% # Number of insts commited each cycle (Count)
system.cpu0.commit.numCommittedDist::overflows            0      0.00%    100.00% # Number of insts commited each cycle (Count)
system.cpu0.commit.numCommittedDist::min_value            0                       # Number of insts commited each cycle (Count)
system.cpu0.commit.numCommittedDist::max_value            8                       # Number of insts commited each cycle (Count)
system.cpu0.commit.numCommittedDist::total     47254374                       # Number of insts commited each cycle (Count)
system.cpu0.commit.instsCommitted            42658262                       # Number of instructions committed (Count)
system.cpu0.commit.opsCommitted              74659121                       # Number of ops (including micro ops) committed (Count)
system.cpu0.commit.memRefs                   24073999                       # Number of memory references committed (Count)
system.cpu0.commit.loads                     21376204                       # Number of loads committed (Count)
system.cpu0.commit.amos                             0                       # Number of atomic instructions committed (Count)
system.cpu0.commit.membars                        138                       # Number of memory barriers committed (Count)
system.cpu0.commit.branches                   7481677                       # Number of branches committed (Count)
system.cpu0.commit.vectorInstructions               0                       # Number of committed Vector instructions. (Count)
system.cpu0.commit.floating                     89322                       # Number of committed floating point instructions. (Count)
system.cpu0.commit.integer                   74589927                       # Number of committed integer instructions. (Count)
system.cpu0.commit.functionCalls                11942                       # Number of function calls committed. (Count)
system.cpu0.commit.committedInstType_0::No_OpClass        14800      0.02%      0.02% # Class of committed instruction (Count)
system.cpu0.commit.committedInstType_0::IntAlu     50444376     67.57%     67.59% # Class of committed instruction (Count)
system.cpu0.commit.committedInstType_0::IntMult        34688      0.05%     67.63% # Class of committed instruction (Count)
system.cpu0.commit.committedInstType_0::IntDiv        37467      0.05%     67.68% # Class of committed instruction (Count)
system.cpu0.commit.committedInstType_0::FloatAdd         7182      0.01%     67.69% # Class of committed instruction (Count)
system.cpu0.commit.committedInstType_0::FloatCmp            0      0.00%     67.69% # Class of committed instruction (Count)
system.cpu0.commit.committedInstType_0::FloatCvt         1632      0.00%     67.69% # Class of committed instruction (Count)
system.cpu0.commit.committedInstType_0::FloatMult            0      0.00%     67.69% # Class of committed instruction (Count)
system.cpu0.commit.committedInstType_0::FloatMultAcc            0      0.00%     67.69% # Class of committed instruction (Count)
system.cpu0.commit.committedInstType_0::FloatDiv            0      0.00%     67.69% # Class of committed instruction (Count)
system.cpu0.commit.committedInstType_0::FloatMisc            0      0.00%     67.69% # Class of committed instruction (Count)
system.cpu0.commit.committedInstType_0::FloatSqrt            0      0.00%     67.69% # Class of committed instruction (Count)
system.cpu0.commit.committedInstType_0::SimdAdd         6188      0.01%     67.70% # Class of committed instruction (Count)
system.cpu0.commit.committedInstType_0::SimdAddAcc            0      0.00%     67.70% # Class of committed instruction (Count)
system.cpu0.commit.committedInstType_0::SimdAlu        11994      0.02%     67.72% # Class of committed instruction (Count)
system.cpu0.commit.committedInstType_0::SimdCmp           12      0.00%     67.72% # Class of committed instruction (Count)
system.cpu0.commit.committedInstType_0::SimdCvt        12370      0.02%     67.74% # Class of committed instruction (Count)
system.cpu0.commit.committedInstType_0::SimdMisc        13257      0.02%     67.75% # Class of committed instruction (Count)
system.cpu0.commit.committedInstType_0::SimdMult            0      0.00%     67.75% # Class of committed instruction (Count)
system.cpu0.commit.committedInstType_0::SimdMultAcc            0      0.00%     67.75% # Class of committed instruction (Count)
system.cpu0.commit.committedInstType_0::SimdShift          993      0.00%     67.75% # Class of committed instruction (Count)
system.cpu0.commit.committedInstType_0::SimdShiftAcc            0      0.00%     67.75% # Class of committed instruction (Count)
system.cpu0.commit.committedInstType_0::SimdDiv            0      0.00%     67.75% # Class of committed instruction (Count)
system.cpu0.commit.committedInstType_0::SimdSqrt            0      0.00%     67.75% # Class of committed instruction (Count)
system.cpu0.commit.committedInstType_0::SimdFloatAdd           44      0.00%     67.75% # Class of committed instruction (Count)
system.cpu0.commit.committedInstType_0::SimdFloatAlu            0      0.00%     67.75% # Class of committed instruction (Count)
system.cpu0.commit.committedInstType_0::SimdFloatCmp            0      0.00%     67.75% # Class of committed instruction (Count)
system.cpu0.commit.committedInstType_0::SimdFloatCvt           49      0.00%     67.75% # Class of committed instruction (Count)
system.cpu0.commit.committedInstType_0::SimdFloatDiv           13      0.00%     67.75% # Class of committed instruction (Count)
system.cpu0.commit.committedInstType_0::SimdFloatMisc            0      0.00%     67.75% # Class of committed instruction (Count)
system.cpu0.commit.committedInstType_0::SimdFloatMult           57      0.00%     67.75% # Class of committed instruction (Count)
system.cpu0.commit.committedInstType_0::SimdFloatMultAcc            0      0.00%     67.75% # Class of committed instruction (Count)
system.cpu0.commit.committedInstType_0::SimdFloatSqrt            0      0.00%     67.75% # Class of committed instruction (Count)
system.cpu0.commit.committedInstType_0::SimdReduceAdd            0      0.00%     67.75% # Class of committed instruction (Count)
system.cpu0.commit.committedInstType_0::SimdReduceAlu            0      0.00%     67.75% # Class of committed instruction (Count)
system.cpu0.commit.committedInstType_0::SimdReduceCmp            0      0.00%     67.75% # Class of committed instruction (Count)
system.cpu0.commit.committedInstType_0::SimdFloatReduceAdd            0      0.00%     67.75% # Class of committed instruction (Count)
system.cpu0.commit.committedInstType_0::SimdFloatReduceCmp            0      0.00%     67.75% # Class of committed instruction (Count)
system.cpu0.commit.committedInstType_0::SimdAes            0      0.00%     67.75% # Class of committed instruction (Count)
system.cpu0.commit.committedInstType_0::SimdAesMix            0      0.00%     67.75% # Class of committed instruction (Count)
system.cpu0.commit.committedInstType_0::SimdSha1Hash            0      0.00%     67.75% # Class of committed instruction (Count)
system.cpu0.commit.committedInstType_0::SimdSha1Hash2            0      0.00%     67.75% # Class of committed instruction (Count)
system.cpu0.commit.committedInstType_0::SimdSha256Hash            0      0.00%     67.75% # Class of committed instruction (Count)
system.cpu0.commit.committedInstType_0::SimdSha256Hash2            0      0.00%     67.75% # Class of committed instruction (Count)
system.cpu0.commit.committedInstType_0::SimdShaSigma2            0      0.00%     67.75% # Class of committed instruction (Count)
system.cpu0.commit.committedInstType_0::SimdShaSigma3            0      0.00%     67.75% # Class of committed instruction (Count)
system.cpu0.commit.committedInstType_0::SimdPredAlu            0      0.00%     67.75% # Class of committed instruction (Count)
system.cpu0.commit.committedInstType_0::MemRead     21359535     28.61%     96.36% # Class of committed instruction (Count)
system.cpu0.commit.committedInstType_0::MemWrite      2682828      3.59%     99.96% # Class of committed instruction (Count)
system.cpu0.commit.committedInstType_0::FloatMemRead        16669      0.02%     99.98% # Class of committed instruction (Count)
system.cpu0.commit.committedInstType_0::FloatMemWrite        14967      0.02%    100.00% # Class of committed instruction (Count)
system.cpu0.commit.committedInstType_0::IprAccess            0      0.00%    100.00% # Class of committed instruction (Count)
system.cpu0.commit.committedInstType_0::InstPrefetch            0      0.00%    100.00% # Class of committed instruction (Count)
system.cpu0.commit.committedInstType_0::total     74659121                       # Class of committed instruction (Count)
system.cpu0.commit.commitEligibleSamples      6162105                       # number cycles where commit BW limit reached (Cycle)
system.cpu0.decode.idleCycles                 3814041                       # Number of cycles decode is idle (Cycle)
system.cpu0.decode.blockedCycles             32464651                       # Number of cycles decode is blocked (Cycle)
system.cpu0.decode.runCycles                  9914687                       # Number of cycles decode is running (Cycle)
system.cpu0.decode.unblockCycles              1276971                       # Number of cycles decode is unblocking (Cycle)
system.cpu0.decode.squashCycles                 24188                       # Number of cycles decode is squashing (Cycle)
system.cpu0.decode.branchResolved             4621466                       # Number of times decode resolved a branch (Count)
system.cpu0.decode.branchMispred                 1438                       # Number of times decode detected a branch misprediction (Count)
system.cpu0.decode.decodedInsts              76703661                       # Number of instructions handled by decode (Count)
system.cpu0.decode.squashedInsts                 7336                       # Number of squashed instructions handled by decode (Count)
system.cpu0.fetch.icacheStallCycles           5115350                       # Number of cycles fetch is stalled on an Icache miss (Cycle)
system.cpu0.fetch.insts                      44119009                       # Number of instructions fetch has processed (Count)
system.cpu0.fetch.branches                    7734610                       # Number of branches that fetch encountered (Count)
system.cpu0.fetch.predictedBranches           4673160                       # Number of branches that fetch has predicted taken (Count)
system.cpu0.fetch.cycles                     42137478                       # Number of cycles fetch has run and was not squashing or blocked (Cycle)
system.cpu0.fetch.squashCycles                  51186                       # Number of cycles fetch has spent squashing (Cycle)
system.cpu0.fetch.miscStallCycles                5928                       # Number of cycles fetch has spent waiting on interrupts, or bad addresses, or out of MSHRs (Cycle)
system.cpu0.fetch.pendingTrapStallCycles        14064                       # Number of stall cycles due to pending traps (Cycle)
system.cpu0.fetch.icacheWaitRetryStallCycles       196125                       # Number of stall cycles due to full MSHR (Cycle)
system.cpu0.fetch.cacheLines                  4845946                       # Number of cache lines fetched (Count)
system.cpu0.fetch.icacheSquashes                 4872                       # Number of outstanding Icache misses that were squashed (Count)
system.cpu0.fetch.nisnDist::samples          47494538                       # Number of instructions fetched each cycle (Total) (Count)
system.cpu0.fetch.nisnDist::mean             1.626076                       # Number of instructions fetched each cycle (Total) (Count)
system.cpu0.fetch.nisnDist::stdev            2.910786                       # Number of instructions fetched each cycle (Total) (Count)
system.cpu0.fetch.nisnDist::underflows              0      0.00%      0.00% # Number of instructions fetched each cycle (Total) (Count)
system.cpu0.fetch.nisnDist::0                35244360     74.21%     74.21% # Number of instructions fetched each cycle (Total) (Count)
system.cpu0.fetch.nisnDist::1                   99416      0.21%     74.42% # Number of instructions fetched each cycle (Total) (Count)
system.cpu0.fetch.nisnDist::2                  593707      1.25%     75.67% # Number of instructions fetched each cycle (Total) (Count)
system.cpu0.fetch.nisnDist::3                  236077      0.50%     76.16% # Number of instructions fetched each cycle (Total) (Count)
system.cpu0.fetch.nisnDist::4                 1540931      3.24%     79.41% # Number of instructions fetched each cycle (Total) (Count)
system.cpu0.fetch.nisnDist::5                  735479      1.55%     80.96% # Number of instructions fetched each cycle (Total) (Count)
system.cpu0.fetch.nisnDist::6                 2969436      6.25%     87.21% # Number of instructions fetched each cycle (Total) (Count)
system.cpu0.fetch.nisnDist::7                 1024118      2.16%     89.37% # Number of instructions fetched each cycle (Total) (Count)
system.cpu0.fetch.nisnDist::8                 5051014     10.63%    100.00% # Number of instructions fetched each cycle (Total) (Count)
system.cpu0.fetch.nisnDist::overflows               0      0.00%    100.00% # Number of instructions fetched each cycle (Total) (Count)
system.cpu0.fetch.nisnDist::min_value               0                       # Number of instructions fetched each cycle (Total) (Count)
system.cpu0.fetch.nisnDist::max_value               8                       # Number of instructions fetched each cycle (Total) (Count)
system.cpu0.fetch.nisnDist::total            47494538                       # Number of instructions fetched each cycle (Total) (Count)
system.cpu0.fetch.branchRate                 0.157975                       # Number of branch fetches per cycle (Ratio)
system.cpu0.fetch.rate                       0.901103                       # Number of inst fetches per cycle ((Count/Cycle))
system.cpu0.iew.idleCycles                          0                       # Number of cycles IEW is idle (Cycle)
system.cpu0.iew.squashCycles                    24188                       # Number of cycles IEW is squashing (Cycle)
system.cpu0.iew.blockCycles                   5961281                       # Number of cycles IEW is blocking (Cycle)
system.cpu0.iew.unblockCycles                  109093                       # Number of cycles IEW is unblocking (Cycle)
system.cpu0.iew.dispatchedInsts              76446094                       # Number of instructions dispatched to IQ (Count)
system.cpu0.iew.dispSquashedInsts                 827                       # Number of squashed instructions skipped by dispatch (Count)
system.cpu0.iew.dispLoadInsts                21718230                       # Number of dispatched load instructions (Count)
system.cpu0.iew.dispStoreInsts                2845102                       # Number of dispatched store instructions (Count)
system.cpu0.iew.dispNonSpecInsts                 1040                       # Number of dispatched non-speculative instructions (Count)
system.cpu0.iew.iqFullEvents                    10467                       # Number of times the IQ has become full, causing a stall (Count)
system.cpu0.iew.lsqFullEvents                   92203                       # Number of times the LSQ has become full, causing a stall (Count)
system.cpu0.iew.memOrderViolationEvents           676                       # Number of memory order violations (Count)
system.cpu0.iew.predictedTakenIncorrect          7546                       # Number of branches that were predicted taken incorrectly (Count)
system.cpu0.iew.predictedNotTakenIncorrect        12360                       # Number of branches that were predicted not taken incorrectly (Count)
system.cpu0.iew.branchMispredicts               19906                       # Number of branch mispredicts detected at execute (Count)
system.cpu0.iew.instsToCommit                75992058                       # Cumulative count of insts sent to commit (Count)
system.cpu0.iew.writebackCount               75958158                       # Cumulative count of insts written-back (Count)
system.cpu0.iew.producerInst                 65202977                       # Number of instructions producing a value (Count)
system.cpu0.iew.consumerInst                 84363726                       # Number of instructions consuming a value (Count)
system.cpu0.iew.wbRate                       1.551398                       # Insts written-back per cycle ((Count/Cycle))
system.cpu0.iew.wbFanout                     0.772879                       # Average fanout of values written-back ((Count/Count))
system.cpu0.interrupts.clk_domain.clock          8000                       # Clock period in ticks (Tick)
system.cpu0.lsq0.forwLoads                    7448155                       # Number of loads that had data forwarded from stores (Count)
system.cpu0.lsq0.squashedLoads                 342001                       # Number of loads squashed (Count)
system.cpu0.lsq0.ignoredResponses                 331                       # Number of memory responses ignored because the instruction is squashed (Count)
system.cpu0.lsq0.memOrderViolation                676                       # Number of memory ordering violations (Count)
system.cpu0.lsq0.squashedStores                147303                       # Number of stores squashed (Count)
system.cpu0.lsq0.rescheduledLoads                  27                       # Number of loads that were rescheduled (Count)
system.cpu0.lsq0.blockedByCache                  1526                       # Number of times an access to memory failed due to the cache being blocked (Count)
system.cpu0.lsq0.loadToUse::samples          21376203                       # Distribution of cycle latency between the first time a load is issued and its completion (Unspecified)
system.cpu0.lsq0.loadToUse::mean             4.055123                       # Distribution of cycle latency between the first time a load is issued and its completion (Unspecified)
system.cpu0.lsq0.loadToUse::stdev           33.613901                       # Distribution of cycle latency between the first time a load is issued and its completion (Unspecified)
system.cpu0.lsq0.loadToUse::0-9              21333281     99.80%     99.80% # Distribution of cycle latency between the first time a load is issued and its completion (Unspecified)
system.cpu0.lsq0.loadToUse::10-19                  37      0.00%     99.80% # Distribution of cycle latency between the first time a load is issued and its completion (Unspecified)
system.cpu0.lsq0.loadToUse::20-29                  23      0.00%     99.80% # Distribution of cycle latency between the first time a load is issued and its completion (Unspecified)
system.cpu0.lsq0.loadToUse::30-39                  28      0.00%     99.80% # Distribution of cycle latency between the first time a load is issued and its completion (Unspecified)
system.cpu0.lsq0.loadToUse::40-49                  55      0.00%     99.80% # Distribution of cycle latency between the first time a load is issued and its completion (Unspecified)
system.cpu0.lsq0.loadToUse::50-59                 129      0.00%     99.80% # Distribution of cycle latency between the first time a load is issued and its completion (Unspecified)
system.cpu0.lsq0.loadToUse::60-69                  53      0.00%     99.80% # Distribution of cycle latency between the first time a load is issued and its completion (Unspecified)
system.cpu0.lsq0.loadToUse::70-79                  16      0.00%     99.80% # Distribution of cycle latency between the first time a load is issued and its completion (Unspecified)
system.cpu0.lsq0.loadToUse::80-89                  31      0.00%     99.80% # Distribution of cycle latency between the first time a load is issued and its completion (Unspecified)
system.cpu0.lsq0.loadToUse::90-99                  31      0.00%     99.80% # Distribution of cycle latency between the first time a load is issued and its completion (Unspecified)
system.cpu0.lsq0.loadToUse::100-109                38      0.00%     99.80% # Distribution of cycle latency between the first time a load is issued and its completion (Unspecified)
system.cpu0.lsq0.loadToUse::110-119                38      0.00%     99.80% # Distribution of cycle latency between the first time a load is issued and its completion (Unspecified)
system.cpu0.lsq0.loadToUse::120-129                20      0.00%     99.80% # Distribution of cycle latency between the first time a load is issued and its completion (Unspecified)
system.cpu0.lsq0.loadToUse::130-139                16      0.00%     99.80% # Distribution of cycle latency between the first time a load is issued and its completion (Unspecified)
system.cpu0.lsq0.loadToUse::140-149                43      0.00%     99.80% # Distribution of cycle latency between the first time a load is issued and its completion (Unspecified)
system.cpu0.lsq0.loadToUse::150-159                33      0.00%     99.80% # Distribution of cycle latency between the first time a load is issued and its completion (Unspecified)
system.cpu0.lsq0.loadToUse::160-169                40      0.00%     99.80% # Distribution of cycle latency between the first time a load is issued and its completion (Unspecified)
system.cpu0.lsq0.loadToUse::170-179                97      0.00%     99.80% # Distribution of cycle latency between the first time a load is issued and its completion (Unspecified)
system.cpu0.lsq0.loadToUse::180-189               596      0.00%     99.81% # Distribution of cycle latency between the first time a load is issued and its completion (Unspecified)
system.cpu0.lsq0.loadToUse::190-199                14      0.00%     99.81% # Distribution of cycle latency between the first time a load is issued and its completion (Unspecified)
system.cpu0.lsq0.loadToUse::200-209                15      0.00%     99.81% # Distribution of cycle latency between the first time a load is issued and its completion (Unspecified)
system.cpu0.lsq0.loadToUse::210-219                28      0.00%     99.81% # Distribution of cycle latency between the first time a load is issued and its completion (Unspecified)
system.cpu0.lsq0.loadToUse::220-229                50      0.00%     99.81% # Distribution of cycle latency between the first time a load is issued and its completion (Unspecified)
system.cpu0.lsq0.loadToUse::230-239               118      0.00%     99.81% # Distribution of cycle latency between the first time a load is issued and its completion (Unspecified)
system.cpu0.lsq0.loadToUse::240-249               766      0.00%     99.81% # Distribution of cycle latency between the first time a load is issued and its completion (Unspecified)
system.cpu0.lsq0.loadToUse::250-259                19      0.00%     99.81% # Distribution of cycle latency between the first time a load is issued and its completion (Unspecified)
system.cpu0.lsq0.loadToUse::260-269                32      0.00%     99.81% # Distribution of cycle latency between the first time a load is issued and its completion (Unspecified)
system.cpu0.lsq0.loadToUse::270-279                58      0.00%     99.81% # Distribution of cycle latency between the first time a load is issued and its completion (Unspecified)
system.cpu0.lsq0.loadToUse::280-289                56      0.00%     99.81% # Distribution of cycle latency between the first time a load is issued and its completion (Unspecified)
system.cpu0.lsq0.loadToUse::290-299               227      0.00%     99.81% # Distribution of cycle latency between the first time a load is issued and its completion (Unspecified)
system.cpu0.lsq0.loadToUse::overflows           40215      0.19%    100.00% # Distribution of cycle latency between the first time a load is issued and its completion (Unspecified)
system.cpu0.lsq0.loadToUse::min_value               2                       # Distribution of cycle latency between the first time a load is issued and its completion (Unspecified)
system.cpu0.lsq0.loadToUse::max_value            2560                       # Distribution of cycle latency between the first time a load is issued and its completion (Unspecified)
system.cpu0.lsq0.loadToUse::total            21376203                       # Distribution of cycle latency between the first time a load is issued and its completion (Unspecified)
system.cpu0.mmu.dtb.rdAccesses               21668665                       # TLB accesses on read requests (Count)
system.cpu0.mmu.dtb.wrAccesses                2827356                       # TLB accesses on write requests (Count)
system.cpu0.mmu.dtb.rdMisses                     3596                       # TLB misses on read requests (Count)
system.cpu0.mmu.dtb.wrMisses                    28565                       # TLB misses on write requests (Count)
system.cpu0.mmu.dtb.walker.power_state.pwrStateResidencyTicks::UNDEFINED  24480549000                       # Cumulative time (in ticks) in various power states (Tick)
system.cpu0.mmu.itb.rdAccesses                      0                       # TLB accesses on read requests (Count)
system.cpu0.mmu.itb.wrAccesses                4848076                       # TLB accesses on write requests (Count)
system.cpu0.mmu.itb.rdMisses                        0                       # TLB misses on read requests (Count)
system.cpu0.mmu.itb.wrMisses                     2921                       # TLB misses on write requests (Count)
system.cpu0.mmu.itb.walker.power_state.pwrStateResidencyTicks::UNDEFINED  24480549000                       # Cumulative time (in ticks) in various power states (Tick)
system.cpu0.power_state.pwrStateResidencyTicks::ON  24480549000                       # Cumulative time (in ticks) in various power states (Tick)
system.cpu0.rename.squashCycles                 24188                       # Number of cycles rename is squashing (Cycle)
system.cpu0.rename.idleCycles                 4473959                       # Number of cycles rename is idle (Cycle)
system.cpu0.rename.blockCycles                6678419                       # Number of cycles rename is blocking (Cycle)
system.cpu0.rename.serializeStallCycles         22177                       # count of cycles rename stalled for serializing inst (Cycle)
system.cpu0.rename.runCycles                 10519290                       # Number of cycles rename is running (Cycle)
system.cpu0.rename.unblockCycles             25776505                       # Number of cycles rename is unblocking (Cycle)
system.cpu0.rename.renamedInsts              76563905                       # Number of instructions processed by rename (Count)
system.cpu0.rename.ROBFullEvents                 9116                       # Number of times rename has blocked due to ROB full (Count)
system.cpu0.rename.IQFullEvents                276042                       # Number of times rename has blocked due to IQ full (Count)
system.cpu0.rename.LQFullEvents              22718250                       # Number of times rename has blocked due to LQ full (Count)
system.cpu0.rename.SQFullEvents               2714202                       # Number of times rename has blocked due to SQ full (Count)
system.cpu0.rename.fullRegistersEvents           2147                       # Number of times there has been no free registers (Count)
system.cpu0.rename.renamedOperands          147280495                       # Number of destination operands rename has renamed (Count)
system.cpu0.rename.lookups                  271512549                       # Number of register rename lookups that rename has made (Count)
system.cpu0.rename.intLookups                84329087                       # Number of integer rename lookups (Count)
system.cpu0.rename.fpLookups                   182168                       # Number of floating rename lookups (Count)
system.cpu0.rename.committedMaps            143757180                       # Number of HB maps that are committed (Count)
system.cpu0.rename.undoneMaps                 3523131                       # Number of HB maps that are undone due to squashing (Count)
system.cpu0.rename.serializing                   1001                       # count of serializing insts renamed (Count)
system.cpu0.rename.tempSerializing                988                       # count of temporary serializing insts renamed (Count)
system.cpu0.rename.skidInsts                  8550122                       # count of insts added to the skid buffer (Count)
system.cpu0.rob.reads                       117453873                       # The number of ROB reads (Count)
system.cpu0.rob.writes                      153122902                       # The number of ROB writes (Count)
system.cpu0.thread_0.numInsts                42658262                       # Number of Instructions committed (Count)
system.cpu0.thread_0.numOps                  74659121                       # Number of Ops committed (Count)
system.cpu0.thread_0.numMemRefs                     0                       # Number of Memory References (Count)
system.cpu0.workload.numSyscalls                   76                       # Number of system calls (Count)
system.cpu1.numCycles                        48961099                       # Number of cpu cycles simulated (Cycle)
system.cpu1.numWorkItemsStarted                     0                       # Number of work items this cpu started (Count)
system.cpu1.numWorkItemsCompleted                   0                       # Number of work items this cpu completed (Count)
system.cpu1.instsAdded                       84815478                       # Number of instructions added to the IQ (excludes non-spec) (Count)
system.cpu1.nonSpecInstsAdded                    1230                       # Number of non-speculative instructions added to the IQ (Count)
system.cpu1.instsIssued                      84405670                       # Number of instructions issued (Count)
system.cpu1.squashedInstsIssued                  2249                       # Number of squashed instructions issued (Count)
system.cpu1.squashedInstsExamined             1801470                       # Number of squashed instructions iterated over during squash; mainly for profiling (Count)
system.cpu1.squashedOperandsExamined          2491228                       # Number of squashed operands that are examined and possibly removed from graph (Count)
system.cpu1.squashedNonSpecRemoved                101                       # Number of squashed non-spec instructions that were removed (Count)
system.cpu1.numIssuedDist::samples           47579123                       # Number of insts issued each cycle (Count)
system.cpu1.numIssuedDist::mean              1.774006                       # Number of insts issued each cycle (Count)
system.cpu1.numIssuedDist::stdev             2.446953                       # Number of insts issued each cycle (Count)
system.cpu1.numIssuedDist::underflows               0      0.00%      0.00% # Number of insts issued each cycle (Count)
system.cpu1.numIssuedDist::0                 27582238     57.97%     57.97% # Number of insts issued each cycle (Count)
system.cpu1.numIssuedDist::1                  2039864      4.29%     62.26% # Number of insts issued each cycle (Count)
system.cpu1.numIssuedDist::2                  2785141      5.85%     68.11% # Number of insts issued each cycle (Count)
system.cpu1.numIssuedDist::3                  2478560      5.21%     73.32% # Number of insts issued each cycle (Count)
system.cpu1.numIssuedDist::4                  3457794      7.27%     80.59% # Number of insts issued each cycle (Count)
system.cpu1.numIssuedDist::5                  3724680      7.83%     88.42% # Number of insts issued each cycle (Count)
system.cpu1.numIssuedDist::6                  2859572      6.01%     94.43% # Number of insts issued each cycle (Count)
system.cpu1.numIssuedDist::7                  1462356      3.07%     97.50% # Number of insts issued each cycle (Count)
system.cpu1.numIssuedDist::8                  1188918      2.50%    100.00% # Number of insts issued each cycle (Count)
system.cpu1.numIssuedDist::overflows                0      0.00%    100.00% # Number of insts issued each cycle (Count)
system.cpu1.numIssuedDist::min_value                0                       # Number of insts issued each cycle (Count)
system.cpu1.numIssuedDist::max_value                8                       # Number of insts issued each cycle (Count)
system.cpu1.numIssuedDist::total             47579123                       # Number of insts issued each cycle (Count)
system.cpu1.statFuBusy::No_OpClass                  0      0.00%      0.00% # attempts to use FU when none available (Count)
system.cpu1.statFuBusy::IntAlu                 726134     39.49%     39.49% # attempts to use FU when none available (Count)
system.cpu1.statFuBusy::IntMult                     0      0.00%     39.49% # attempts to use FU when none available (Count)
system.cpu1.statFuBusy::IntDiv                      0      0.00%     39.49% # attempts to use FU when none available (Count)
system.cpu1.statFuBusy::FloatAdd                    0      0.00%     39.49% # attempts to use FU when none available (Count)
system.cpu1.statFuBusy::FloatCmp                    0      0.00%     39.49% # attempts to use FU when none available (Count)
system.cpu1.statFuBusy::FloatCvt                    0      0.00%     39.49% # attempts to use FU when none available (Count)
system.cpu1.statFuBusy::FloatMult                   0      0.00%     39.49% # attempts to use FU when none available (Count)
system.cpu1.statFuBusy::FloatMultAcc                0      0.00%     39.49% # attempts to use FU when none available (Count)
system.cpu1.statFuBusy::FloatDiv                    0      0.00%     39.49% # attempts to use FU when none available (Count)
system.cpu1.statFuBusy::FloatMisc                   0      0.00%     39.49% # attempts to use FU when none available (Count)
system.cpu1.statFuBusy::FloatSqrt                   0      0.00%     39.49% # attempts to use FU when none available (Count)
system.cpu1.statFuBusy::SimdAdd                    12      0.00%     39.50% # attempts to use FU when none available (Count)
system.cpu1.statFuBusy::SimdAddAcc                  0      0.00%     39.50% # attempts to use FU when none available (Count)
system.cpu1.statFuBusy::SimdAlu                   118      0.01%     39.50% # attempts to use FU when none available (Count)
system.cpu1.statFuBusy::SimdCmp                     0      0.00%     39.50% # attempts to use FU when none available (Count)
system.cpu1.statFuBusy::SimdCvt                   249      0.01%     39.52% # attempts to use FU when none available (Count)
system.cpu1.statFuBusy::SimdMisc                   23      0.00%     39.52% # attempts to use FU when none available (Count)
system.cpu1.statFuBusy::SimdMult                    0      0.00%     39.52% # attempts to use FU when none available (Count)
system.cpu1.statFuBusy::SimdMultAcc                 0      0.00%     39.52% # attempts to use FU when none available (Count)
system.cpu1.statFuBusy::SimdShift                 146      0.01%     39.52% # attempts to use FU when none available (Count)
system.cpu1.statFuBusy::SimdShiftAcc                0      0.00%     39.52% # attempts to use FU when none available (Count)
system.cpu1.statFuBusy::SimdDiv                     0      0.00%     39.52% # attempts to use FU when none available (Count)
system.cpu1.statFuBusy::SimdSqrt                    0      0.00%     39.52% # attempts to use FU when none available (Count)
system.cpu1.statFuBusy::SimdFloatAdd                0      0.00%     39.52% # attempts to use FU when none available (Count)
system.cpu1.statFuBusy::SimdFloatAlu                0      0.00%     39.52% # attempts to use FU when none available (Count)
system.cpu1.statFuBusy::SimdFloatCmp                0      0.00%     39.52% # attempts to use FU when none available (Count)
system.cpu1.statFuBusy::SimdFloatCvt                0      0.00%     39.52% # attempts to use FU when none available (Count)
system.cpu1.statFuBusy::SimdFloatDiv                0      0.00%     39.52% # attempts to use FU when none available (Count)
system.cpu1.statFuBusy::SimdFloatMisc               0      0.00%     39.52% # attempts to use FU when none available (Count)
system.cpu1.statFuBusy::SimdFloatMult               0      0.00%     39.52% # attempts to use FU when none available (Count)
system.cpu1.statFuBusy::SimdFloatMultAcc            0      0.00%     39.52% # attempts to use FU when none available (Count)
system.cpu1.statFuBusy::SimdFloatSqrt               0      0.00%     39.52% # attempts to use FU when none available (Count)
system.cpu1.statFuBusy::SimdReduceAdd               0      0.00%     39.52% # attempts to use FU when none available (Count)
system.cpu1.statFuBusy::SimdReduceAlu               0      0.00%     39.52% # attempts to use FU when none available (Count)
system.cpu1.statFuBusy::SimdReduceCmp               0      0.00%     39.52% # attempts to use FU when none available (Count)
system.cpu1.statFuBusy::SimdFloatReduceAdd            0      0.00%     39.52% # attempts to use FU when none available (Count)
system.cpu1.statFuBusy::SimdFloatReduceCmp            0      0.00%     39.52% # attempts to use FU when none available (Count)
system.cpu1.statFuBusy::SimdAes                     0      0.00%     39.52% # attempts to use FU when none available (Count)
system.cpu1.statFuBusy::SimdAesMix                  0      0.00%     39.52% # attempts to use FU when none available (Count)
system.cpu1.statFuBusy::SimdSha1Hash                0      0.00%     39.52% # attempts to use FU when none available (Count)
system.cpu1.statFuBusy::SimdSha1Hash2               0      0.00%     39.52% # attempts to use FU when none available (Count)
system.cpu1.statFuBusy::SimdSha256Hash              0      0.00%     39.52% # attempts to use FU when none available (Count)
system.cpu1.statFuBusy::SimdSha256Hash2             0      0.00%     39.52% # attempts to use FU when none available (Count)
system.cpu1.statFuBusy::SimdShaSigma2               0      0.00%     39.52% # attempts to use FU when none available (Count)
system.cpu1.statFuBusy::SimdShaSigma3               0      0.00%     39.52% # attempts to use FU when none available (Count)
system.cpu1.statFuBusy::SimdPredAlu                 0      0.00%     39.52% # attempts to use FU when none available (Count)
system.cpu1.statFuBusy::MemRead               1098064     59.72%     99.25% # attempts to use FU when none available (Count)
system.cpu1.statFuBusy::MemWrite                12774      0.69%     99.94% # attempts to use FU when none available (Count)
system.cpu1.statFuBusy::FloatMemRead              720      0.04%     99.98% # attempts to use FU when none available (Count)
system.cpu1.statFuBusy::FloatMemWrite             329      0.02%    100.00% # attempts to use FU when none available (Count)
system.cpu1.statFuBusy::IprAccess                   0      0.00%    100.00% # attempts to use FU when none available (Count)
system.cpu1.statFuBusy::InstPrefetch                0      0.00%    100.00% # attempts to use FU when none available (Count)
system.cpu1.statIssuedInstType_0::No_OpClass        27805      0.03%      0.03% # Number of instructions issued per FU type, per thread (Count)
system.cpu1.statIssuedInstType_0::IntAlu     56970105     67.50%     67.53% # Number of instructions issued per FU type, per thread (Count)
system.cpu1.statIssuedInstType_0::IntMult        40087      0.05%     67.58% # Number of instructions issued per FU type, per thread (Count)
system.cpu1.statIssuedInstType_0::IntDiv        39993      0.05%     67.62% # Number of instructions issued per FU type, per thread (Count)
system.cpu1.statIssuedInstType_0::FloatAdd         8646      0.01%     67.63% # Number of instructions issued per FU type, per thread (Count)
system.cpu1.statIssuedInstType_0::FloatCmp            0      0.00%     67.63% # Number of instructions issued per FU type, per thread (Count)
system.cpu1.statIssuedInstType_0::FloatCvt         1712      0.00%     67.64% # Number of instructions issued per FU type, per thread (Count)
system.cpu1.statIssuedInstType_0::FloatMult            0      0.00%     67.64% # Number of instructions issued per FU type, per thread (Count)
system.cpu1.statIssuedInstType_0::FloatMultAcc            0      0.00%     67.64% # Number of instructions issued per FU type, per thread (Count)
system.cpu1.statIssuedInstType_0::FloatDiv            0      0.00%     67.64% # Number of instructions issued per FU type, per thread (Count)
system.cpu1.statIssuedInstType_0::FloatMisc            0      0.00%     67.64% # Number of instructions issued per FU type, per thread (Count)
system.cpu1.statIssuedInstType_0::FloatSqrt            0      0.00%     67.64% # Number of instructions issued per FU type, per thread (Count)
system.cpu1.statIssuedInstType_0::SimdAdd         7067      0.01%     67.64% # Number of instructions issued per FU type, per thread (Count)
system.cpu1.statIssuedInstType_0::SimdAddAcc            0      0.00%     67.64% # Number of instructions issued per FU type, per thread (Count)
system.cpu1.statIssuedInstType_0::SimdAlu        15331      0.02%     67.66% # Number of instructions issued per FU type, per thread (Count)
system.cpu1.statIssuedInstType_0::SimdCmp           12      0.00%     67.66% # Number of instructions issued per FU type, per thread (Count)
system.cpu1.statIssuedInstType_0::SimdCvt        15033      0.02%     67.68% # Number of instructions issued per FU type, per thread (Count)
system.cpu1.statIssuedInstType_0::SimdMisc        14678      0.02%     67.70% # Number of instructions issued per FU type, per thread (Count)
system.cpu1.statIssuedInstType_0::SimdMult            0      0.00%     67.70% # Number of instructions issued per FU type, per thread (Count)
system.cpu1.statIssuedInstType_0::SimdMultAcc            0      0.00%     67.70% # Number of instructions issued per FU type, per thread (Count)
system.cpu1.statIssuedInstType_0::SimdShift         2279      0.00%     67.70% # Number of instructions issued per FU type, per thread (Count)
system.cpu1.statIssuedInstType_0::SimdShiftAcc            0      0.00%     67.70% # Number of instructions issued per FU type, per thread (Count)
system.cpu1.statIssuedInstType_0::SimdDiv            0      0.00%     67.70% # Number of instructions issued per FU type, per thread (Count)
system.cpu1.statIssuedInstType_0::SimdSqrt            0      0.00%     67.70% # Number of instructions issued per FU type, per thread (Count)
system.cpu1.statIssuedInstType_0::SimdFloatAdd           44      0.00%     67.70% # Number of instructions issued per FU type, per thread (Count)
system.cpu1.statIssuedInstType_0::SimdFloatAlu            0      0.00%     67.70% # Number of instructions issued per FU type, per thread (Count)
system.cpu1.statIssuedInstType_0::SimdFloatCmp            0      0.00%     67.70% # Number of instructions issued per FU type, per thread (Count)
system.cpu1.statIssuedInstType_0::SimdFloatCvt           52      0.00%     67.70% # Number of instructions issued per FU type, per thread (Count)
system.cpu1.statIssuedInstType_0::SimdFloatDiv           13      0.00%     67.70% # Number of instructions issued per FU type, per thread (Count)
system.cpu1.statIssuedInstType_0::SimdFloatMisc            0      0.00%     67.70% # Number of instructions issued per FU type, per thread (Count)
system.cpu1.statIssuedInstType_0::SimdFloatMult           58      0.00%     67.70% # Number of instructions issued per FU type, per thread (Count)
system.cpu1.statIssuedInstType_0::SimdFloatMultAcc            0      0.00%     67.70% # Number of instructions issued per FU type, per thread (Count)
system.cpu1.statIssuedInstType_0::SimdFloatSqrt            0      0.00%     67.70% # Number of instructions issued per FU type, per thread (Count)
system.cpu1.statIssuedInstType_0::SimdReduceAdd            0      0.00%     67.70% # Number of instructions issued per FU type, per thread (Count)
system.cpu1.statIssuedInstType_0::SimdReduceAlu            0      0.00%     67.70% # Number of instructions issued per FU type, per thread (Count)
system.cpu1.statIssuedInstType_0::SimdReduceCmp            0      0.00%     67.70% # Number of instructions issued per FU type, per thread (Count)
system.cpu1.statIssuedInstType_0::SimdFloatReduceAdd            0      0.00%     67.70% # Number of instructions issued per FU type, per thread (Count)
system.cpu1.statIssuedInstType_0::SimdFloatReduceCmp            0      0.00%     67.70% # Number of instructions issued per FU type, per thread (Count)
system.cpu1.statIssuedInstType_0::SimdAes            0      0.00%     67.70% # Number of instructions issued per FU type, per thread (Count)
system.cpu1.statIssuedInstType_0::SimdAesMix            0      0.00%     67.70% # Number of instructions issued per FU type, per thread (Count)
system.cpu1.statIssuedInstType_0::SimdSha1Hash            0      0.00%     67.70% # Number of instructions issued per FU type, per thread (Count)
system.cpu1.statIssuedInstType_0::SimdSha1Hash2            0      0.00%     67.70% # Number of instructions issued per FU type, per thread (Count)
system.cpu1.statIssuedInstType_0::SimdSha256Hash            0      0.00%     67.70% # Number of instructions issued per FU type, per thread (Count)
system.cpu1.statIssuedInstType_0::SimdSha256Hash2            0      0.00%     67.70% # Number of instructions issued per FU type, per thread (Count)
system.cpu1.statIssuedInstType_0::SimdShaSigma2            0      0.00%     67.70% # Number of instructions issued per FU type, per thread (Count)
system.cpu1.statIssuedInstType_0::SimdShaSigma3            0      0.00%     67.70% # Number of instructions issued per FU type, per thread (Count)
system.cpu1.statIssuedInstType_0::SimdPredAlu            0      0.00%     67.70% # Number of instructions issued per FU type, per thread (Count)
system.cpu1.statIssuedInstType_0::MemRead     24126442     28.58%     96.28% # Number of instructions issued per FU type, per thread (Count)
system.cpu1.statIssuedInstType_0::MemWrite      3097452      3.67%     99.95% # Number of instructions issued per FU type, per thread (Count)
system.cpu1.statIssuedInstType_0::FloatMemRead        22962      0.03%     99.98% # Number of instructions issued per FU type, per thread (Count)
system.cpu1.statIssuedInstType_0::FloatMemWrite        15899      0.02%    100.00% # Number of instructions issued per FU type, per thread (Count)
system.cpu1.statIssuedInstType_0::IprAccess            0      0.00%    100.00% # Number of instructions issued per FU type, per thread (Count)
system.cpu1.statIssuedInstType_0::InstPrefetch            0      0.00%    100.00% # Number of instructions issued per FU type, per thread (Count)
system.cpu1.statIssuedInstType_0::total      84405670                       # Number of instructions issued per FU type, per thread (Count)
system.cpu1.issueRate                        1.723933                       # Inst issue rate ((Count/Cycle))
system.cpu1.fuBusy                            1838569                       # FU busy when requested (Count)
system.cpu1.fuBusyRate                       0.021783                       # FU busy rate (busy events/executed inst) ((Count/Count))
system.cpu1.intInstQueueReads               218013300                       # Number of integer instruction queue reads (Count)
system.cpu1.intInstQueueWrites               86465037                       # Number of integer instruction queue writes (Count)
system.cpu1.intInstQueueWakeupAccesses       84220536                       # Number of integer instruction queue wakeup accesses (Count)
system.cpu1.fpInstQueueReads                   217979                       # Number of floating instruction queue reads (Count)
system.cpu1.fpInstQueueWrites                  153828                       # Number of floating instruction queue writes (Count)
system.cpu1.fpInstQueueWakeupAccesses          104200                       # Number of floating instruction queue wakeup accesses (Count)
system.cpu1.vecInstQueueReads                       0                       # Number of vector instruction queue reads (Count)
system.cpu1.vecInstQueueWrites                      0                       # Number of vector instruction queue writes (Count)
system.cpu1.vecInstQueueWakeupAccesses              0                       # Number of vector instruction queue wakeup accesses (Count)
system.cpu1.intAluAccesses                   86106769                       # Number of integer alu accesses (Count)
system.cpu1.fpAluAccesses                      109665                       # Number of floating point alu accesses (Count)
system.cpu1.vecAluAccesses                          0                       # Number of vector alu accesses (Count)
system.cpu1.numInsts                         84374899                       # Number of executed instructions (Count)
system.cpu1.numLoadInsts                     24140881                       # Number of load instructions executed (Count)
system.cpu1.numSquashedInsts                    30769                       # Number of squashed instructions skipped in execute (Count)
system.cpu1.numSwp                                  0                       # Number of swp insts executed (Count)
system.cpu1.numNop                                  0                       # Number of nop insts executed (Count)
system.cpu1.numRefs                          27251789                       # Number of memory reference insts executed (Count)
system.cpu1.numBranches                       8430187                       # Number of branches executed (Count)
[...]
system.ruby.network.ext_out_link_utilization     12077517                       (Unspecified)
system.ruby.network.flit_network_latency |409683484500                       |537993669000                       | 50613115500                       (Unspecified)
system.ruby.network.flit_queueing_latency |  5339841500                       |  4426666000                       |   349137500                       (Unspecified)
system.ruby.network.flits_injected       |     3882255     32.14%     32.14% |     7496987     62.07%     94.22% |      698275      5.78%    100.00% (Unspecified)
system.ruby.network.flits_injected::total     12077517                       (Unspecified)
system.ruby.network.flits_received       |     3882255     32.14%     32.14% |     7496987     62.07%     94.22% |      698275      5.78%    100.00% (Unspecified)
system.ruby.network.flits_received::total     12077517                       (Unspecified)
system.ruby.network.int_link_utilization     31367707                       (Unspecified)
system.ruby.network.packet_network_latency |198390892500                       |175327645500                       | 50613115500                       (Unspecified)
system.ruby.network.packet_queueing_latency |  3250589500                       |  1173878000                       |   349137500                       (Unspecified)
system.ruby.network.packets_injected     |     2051491     42.73%     42.73% |     2051491     42.73%     85.46% |      698275     14.54%    100.00% (Unspecified)
system.ruby.network.packets_injected::total      4801257                       (Unspecified)
system.ruby.network.packets_received     |     2051491     42.73%     42.73% |     2051491     42.73%     85.46% |      698275     14.54%    100.00% (Unspecified)
system.ruby.network.packets_received::total      4801257                       (Unspecified)
system.ruby.network.routers00.Var_1                 2                       (Unspecified)
system.ruby.network.routers00.Var_2              2820                       (Unspecified)
system.ruby.network.routers00.Var_3              6883                       (Unspecified)
system.ruby.network.routers00.all_counts       133606                       (Unspecified)
system.ruby.network.routers00.buffer_reads      1334512                       (Unspecified)
system.ruby.network.routers00.buffer_writes      1334512                       (Unspecified)
system.ruby.network.routers00.crossbar_activity      1334512                       (Unspecified)
system.ruby.network.routers00.detour_counts         6908                       (Unspecified)
system.ruby.network.routers00.regular_var            0                       (Unspecified)
system.ruby.network.routers00.risk_counts         6908                       (Unspecified)
system.ruby.network.routers00.sw_input_arbiter_activity      1340316                       (Unspecified)
system.ruby.network.routers00.sw_output_arbiter_activity      1334512                       (Unspecified)
system.ruby.network.routers01.Var_1                 2                       (Unspecified)
system.ruby.network.routers01.Var_2              2844                       (Unspecified)
system.ruby.network.routers01.Var_3              9944                       (Unspecified)
system.ruby.network.routers01.all_counts       133710                       (Unspecified)
system.ruby.network.routers01.buffer_reads      3056256                       (Unspecified)
system.ruby.network.routers01.buffer_writes      3056256                       (Unspecified)
system.ruby.network.routers01.crossbar_activity      3056256                       (Unspecified)
system.ruby.network.routers01.detour_counts        10004                       (Unspecified)
system.ruby.network.routers01.regular_var            0                       (Unspecified)
system.ruby.network.routers01.risk_counts        10005                       (Unspecified)
system.ruby.network.routers01.sw_input_arbiter_activity      3085308                       (Unspecified)
system.ruby.network.routers01.sw_output_arbiter_activity      3056256                       (Unspecified)
system.ruby.network.routers02.Var_1                 5                       (Unspecified)
system.ruby.network.routers02.Var_2              2887                       (Unspecified)
system.ruby.network.routers02.Var_3             10111                       (Unspecified)
system.ruby.network.routers02.all_counts       133702                       (Unspecified)
system.ruby.network.routers02.buffer_reads      2389180                       (Unspecified)
system.ruby.network.routers02.buffer_writes      2389180                       (Unspecified)
system.ruby.network.routers02.crossbar_activity      2389180                       (Unspecified)
system.ruby.network.routers02.detour_counts        10161                       (Unspecified)
system.ruby.network.routers02.regular_var            0                       (Unspecified)
system.ruby.network.routers02.risk_counts        10162                       (Unspecified)
system.ruby.network.routers02.sw_input_arbiter_activity      2408224                       (Unspecified)
system.ruby.network.routers02.sw_output_arbiter_activity      2389180                       (Unspecified)
system.ruby.network.routers03.Var_1                 1                       (Unspecified)
system.ruby.network.routers03.Var_2              2853                       (Unspecified)
system.ruby.network.routers03.Var_3              7217                       (Unspecified)
system.ruby.network.routers03.all_counts       133650                       (Unspecified)
system.ruby.network.routers03.buffer_reads      2503596                       (Unspecified)
system.ruby.network.routers03.buffer_writes      2503596                       (Unspecified)
system.ruby.network.routers03.crossbar_activity      2503596                       (Unspecified)
system.ruby.network.routers03.detour_counts         7239                       (Unspecified)
system.ruby.network.routers03.regular_var            0                       (Unspecified)
system.ruby.network.routers03.risk_counts         7239                       (Unspecified)
system.ruby.network.routers03.sw_input_arbiter_activity      2521263                       (Unspecified)
system.ruby.network.routers03.sw_output_arbiter_activity      2503596                       (Unspecified)
system.ruby.network.routers04.Var_1                 7                       (Unspecified)
system.ruby.network.routers04.Var_2              2852                       (Unspecified)
system.ruby.network.routers04.Var_3             10744                       (Unspecified)
system.ruby.network.routers04.all_counts       133668                       (Unspecified)
system.ruby.network.routers04.buffer_reads      1811601                       (Unspecified)
system.ruby.network.routers04.buffer_writes      1811601                       (Unspecified)
system.ruby.network.routers04.crossbar_activity      1811601                       (Unspecified)
system.ruby.network.routers04.detour_counts        10776                       (Unspecified)
system.ruby.network.routers04.regular_var            0                       (Unspecified)
system.ruby.network.routers04.risk_counts        10777                       (Unspecified)
system.ruby.network.routers04.sw_input_arbiter_activity      1822873                       (Unspecified)
system.ruby.network.routers04.sw_output_arbiter_activity      1811601                       (Unspecified)
system.ruby.network.routers05.Var_1                 0                       (Unspecified)
system.ruby.network.routers05.Var_2              2830                       (Unspecified)
system.ruby.network.routers05.Var_3             41681                       (Unspecified)
system.ruby.network.routers05.all_counts       133691                       (Unspecified)
system.ruby.network.routers05.buffer_reads      4131584                       (Unspecified)
system.ruby.network.routers05.buffer_writes      4131584                       (Unspecified)
system.ruby.network.routers05.crossbar_activity      4131584                       (Unspecified)
system.ruby.network.routers05.detour_counts        41726                       (Unspecified)
system.ruby.network.routers05.regular_var            0                       (Unspecified)
system.ruby.network.routers05.risk_counts        41732                       (Unspecified)
system.ruby.network.routers05.sw_input_arbiter_activity      4181442                       (Unspecified)
system.ruby.network.routers05.sw_output_arbiter_activity      4131584                       (Unspecified)
system.ruby.network.routers06.Var_1                 7                       (Unspecified)
system.ruby.network.routers06.Var_2              2846                       (Unspecified)
system.ruby.network.routers06.Var_3             12776                       (Unspecified)
system.ruby.network.routers06.all_counts       133758                       (Unspecified)
system.ruby.network.routers06.buffer_reads      2929798                       (Unspecified)
system.ruby.network.routers06.buffer_writes      2929798                       (Unspecified)
system.ruby.network.routers06.crossbar_activity      2929798                       (Unspecified)
system.ruby.network.routers06.detour_counts        12845                       (Unspecified)
system.ruby.network.routers06.regular_var            0                       (Unspecified)
system.ruby.network.routers06.risk_counts        12845                       (Unspecified)
system.ruby.network.routers06.sw_input_arbiter_activity      2954588                       (Unspecified)
system.ruby.network.routers06.sw_output_arbiter_activity      2929798                       (Unspecified)
system.ruby.network.routers07.Var_1                 5                       (Unspecified)
system.ruby.network.routers07.Var_2              2861                       (Unspecified)
system.ruby.network.routers07.Var_3             39761                       (Unspecified)
system.ruby.network.routers07.all_counts       133637                       (Unspecified)
system.ruby.network.routers07.buffer_reads      3562049                       (Unspecified)
system.ruby.network.routers07.buffer_writes      3562049                       (Unspecified)
system.ruby.network.routers07.crossbar_activity      3562049                       (Unspecified)
system.ruby.network.routers07.detour_counts        39784                       (Unspecified)
system.ruby.network.routers07.regular_var            0                       (Unspecified)
system.ruby.network.routers07.risk_counts        39786                       (Unspecified)
system.ruby.network.routers07.sw_input_arbiter_activity      3600180                       (Unspecified)
system.ruby.network.routers07.sw_output_arbiter_activity      3562049                       (Unspecified)
system.ruby.network.routers08.Var_1                 2                       (Unspecified)
system.ruby.network.routers08.Var_2              2842                       (Unspecified)
system.ruby.network.routers08.Var_3             10769                       (Unspecified)
system.ruby.network.routers08.all_counts       133721                       (Unspecified)
system.ruby.network.routers08.buffer_reads      1812037                       (Unspecified)
system.ruby.network.routers08.buffer_writes      1812037                       (Unspecified)
system.ruby.network.routers08.crossbar_activity      1812037                       (Unspecified)
system.ruby.network.routers08.detour_counts        10798                       (Unspecified)
system.ruby.network.routers08.regular_var            0                       (Unspecified)
system.ruby.network.routers08.risk_counts        10802                       (Unspecified)
system.ruby.network.routers08.sw_input_arbiter_activity      1823321                       (Unspecified)
system.ruby.network.routers08.sw_output_arbiter_activity      1812037                       (Unspecified)
system.ruby.network.routers09.Var_1                 1                       (Unspecified)
system.ruby.network.routers09.Var_2              2808                       (Unspecified)
system.ruby.network.routers09.Var_3             41638                       (Unspecified)
system.ruby.network.routers09.all_counts       133762                       (Unspecified)
system.ruby.network.routers09.buffer_reads      4139693                       (Unspecified)
system.ruby.network.routers09.buffer_writes      4139693                       (Unspecified)
system.ruby.network.routers09.crossbar_activity      4139693                       (Unspecified)
system.ruby.network.routers09.detour_counts        41662                       (Unspecified)
system.ruby.network.routers09.regular_var            0                       (Unspecified)
system.ruby.network.routers09.risk_counts        41664                       (Unspecified)
system.ruby.network.routers09.sw_input_arbiter_activity      4189448                       (Unspecified)
system.ruby.network.routers09.sw_output_arbiter_activity      4139693                       (Unspecified)
system.ruby.network.routers10.Var_1                 3                       (Unspecified)
system.ruby.network.routers10.Var_2              2780                       (Unspecified)
system.ruby.network.routers10.Var_3             12681                       (Unspecified)
system.ruby.network.routers10.all_counts       133777                       (Unspecified)
system.ruby.network.routers10.buffer_reads      2933495                       (Unspecified)
system.ruby.network.routers10.buffer_writes      2933495                       (Unspecified)
system.ruby.network.routers10.crossbar_activity      2933495                       (Unspecified)
system.ruby.network.routers10.detour_counts        12749                       (Unspecified)
system.ruby.network.routers10.regular_var            0                       (Unspecified)
system.ruby.network.routers10.risk_counts        12749                       (Unspecified)
system.ruby.network.routers10.sw_input_arbiter_activity      2958870                       (Unspecified)
system.ruby.network.routers10.sw_output_arbiter_activity      2933495                       (Unspecified)
system.ruby.network.routers11.Var_1                 0                       (Unspecified)
system.ruby.network.routers11.Var_2              2854                       (Unspecified)
system.ruby.network.routers11.Var_3             39577                       (Unspecified)
system.ruby.network.routers11.all_counts       133733                       (Unspecified)
system.ruby.network.routers11.buffer_reads      3566118                       (Unspecified)
system.ruby.network.routers11.buffer_writes      3566118                       (Unspecified)
system.ruby.network.routers11.crossbar_activity      3566118                       (Unspecified)
system.ruby.network.routers11.detour_counts        39599                       (Unspecified)
system.ruby.network.routers11.regular_var            0                       (Unspecified)
system.ruby.network.routers11.risk_counts        39603                       (Unspecified)
system.ruby.network.routers11.sw_input_arbiter_activity      3605002                       (Unspecified)
system.ruby.network.routers11.sw_output_arbiter_activity      3566118                       (Unspecified)
system.ruby.network.routers12.Var_1                 5                       (Unspecified)
system.ruby.network.routers12.Var_2              2859                       (Unspecified)
system.ruby.network.routers12.Var_3              6905                       (Unspecified)
system.ruby.network.routers12.all_counts       133600                       (Unspecified)
system.ruby.network.routers12.buffer_reads      1329210                       (Unspecified)
system.ruby.network.routers12.buffer_writes      1329210                       (Unspecified)
system.ruby.network.routers12.crossbar_activity      1329210                       (Unspecified)
system.ruby.network.routers12.detour_counts         6955                       (Unspecified)
system.ruby.network.routers12.regular_var            0                       (Unspecified)
system.ruby.network.routers12.risk_counts         6955                       (Unspecified)
system.ruby.network.routers12.sw_input_arbiter_activity      1335118                       (Unspecified)
system.ruby.network.routers12.sw_output_arbiter_activity      1329210                       (Unspecified)
system.ruby.network.routers13.Var_1                 5                       (Unspecified)
system.ruby.network.routers13.Var_2              2804                       (Unspecified)
system.ruby.network.routers13.Var_3              9780                       (Unspecified)
system.ruby.network.routers13.all_counts       133687                       (Unspecified)
system.ruby.network.routers13.buffer_reads      3054030                       (Unspecified)
system.ruby.network.routers13.buffer_writes      3054030                       (Unspecified)
system.ruby.network.routers13.crossbar_activity      3054030                       (Unspecified)
system.ruby.network.routers13.detour_counts         9823                       (Unspecified)
system.ruby.network.routers13.regular_var            0                       (Unspecified)
system.ruby.network.routers13.risk_counts         9823                       (Unspecified)
system.ruby.network.routers13.sw_input_arbiter_activity      3082526                       (Unspecified)
system.ruby.network.routers13.sw_output_arbiter_activity      3054030                       (Unspecified)
system.ruby.network.routers14.Var_1                 3                       (Unspecified)
system.ruby.network.routers14.Var_2              2860                       (Unspecified)
system.ruby.network.routers14.Var_3             10027                       (Unspecified)
system.ruby.network.routers14.all_counts       133717                       (Unspecified)
system.ruby.network.routers14.buffer_reads      2386119                       (Unspecified)
system.ruby.network.routers14.buffer_writes      2386119                       (Unspecified)
system.ruby.network.routers14.crossbar_activity      2386119                       (Unspecified)
system.ruby.network.routers14.detour_counts        10084                       (Unspecified)
system.ruby.network.routers14.regular_var            0                       (Unspecified)
system.ruby.network.routers14.risk_counts        10086                       (Unspecified)
system.ruby.network.routers14.sw_input_arbiter_activity      2404890                       (Unspecified)
system.ruby.network.routers14.sw_output_arbiter_activity      2386119                       (Unspecified)
system.ruby.network.routers15.Var_1                 2                       (Unspecified)
system.ruby.network.routers15.Var_2              2852                       (Unspecified)
system.ruby.network.routers15.Var_3              7078                       (Unspecified)
system.ruby.network.routers15.all_counts       133685                       (Unspecified)
system.ruby.network.routers15.buffer_reads      2505946                       (Unspecified)
system.ruby.network.routers15.buffer_writes      2505946                       (Unspecified)
system.ruby.network.routers15.crossbar_activity      2505946                       (Unspecified)
system.ruby.network.routers15.detour_counts         7123                       (Unspecified)
system.ruby.network.routers15.regular_var            0                       (Unspecified)
system.ruby.network.routers15.risk_counts         7123                       (Unspecified)
system.ruby.network.routers15.sw_input_arbiter_activity      2523581                       (Unspecified)
system.ruby.network.routers15.sw_output_arbiter_activity      2505946                       (Unspecified)

---------- End Simulation Statistics   ----------
