
---------- Begin Simulation Statistics ----------
simSeconds                                   0.032725                       # Number of seconds simulated (Second)
simTicks                                  32725442500                       # Number of ticks simulated (Tick)
finalTick                                 32725442500                       # Number of ticks from beginning of simulation (restored from checkpoints and never reset) (Tick)
simFreq                                  1000000000000                       # The number of ticks per simulated second ((Tick/Second))
hostSeconds                                   2582.06                       # Real time elapsed on the host (Second)
hostTickRate                                 12674139                       # The number of ticks simulated per host second (ticks/s) ((Tick/Second))
hostMemory                                   40109128                       # Number of bytes of host memory used (Byte)
simInsts                                    519327055                       # Number of instructions simulated (Count)
simOps                                      810945071                       # Number of ops (including micro ops) simulated (Count)
hostInstRate                                   201129                       # Simulator instruction rate (inst/s) ((Count/Second))
hostOpRate                                     314068                       # Simulator op (including micro ops) rate (op/s) ((Count/Second))
system.clk_domain.clock                          1000                       # Clock period in ticks (Tick)
system.cpu0.numCycles                        10185557                       # Number of cpu cycles simulated (Cycle)
system.cpu0.numWorkItemsStarted                     0                       # Number of work items this cpu started (Count)
system.cpu0.numWorkItemsCompleted                   0                       # Number of work items this cpu completed (Count)
system.cpu0.instsAdded                        5124214                       # Number of instructions added to the IQ (excludes non-spec) (Count)
system.cpu0.nonSpecInstsAdded                    1594                       # Number of non-speculative instructions added to the IQ (Count)
system.cpu0.instsIssued                       4752204                       # Number of instructions issued (Count)
system.cpu0.squashedInstsIssued                  1789                       # Number of squashed instructions issued (Count)
system.cpu0.squashedInstsExamined              955560                       # Number of squashed instructions iterated over during squash; mainly for profiling (Count)
system.cpu0.squashedOperandsExamined          2163269                       # Number of squashed operands that are examined and possibly removed from graph (Count)
system.cpu0.squashedNonSpecRemoved                364                       # Number of squashed non-spec instructions that were removed (Count)
system.cpu0.numIssuedDist::samples            8827557                       # Number of insts issued each cycle (Count)
system.cpu0.numIssuedDist::mean              0.538337                       # Number of insts issued each cycle (Count)
system.cpu0.numIssuedDist::stdev             1.491868                       # Number of insts issued each cycle (Count)
system.cpu0.numIssuedDist::underflows               0      0.00%      0.00% # Number of insts issued each cycle (Count)
system.cpu0.numIssuedDist::0                  7510864     85.08%     85.08% # Number of insts issued each cycle (Count)
system.cpu0.numIssuedDist::1                   211344      2.39%     87.48% # Number of insts issued each cycle (Count)
system.cpu0.numIssuedDist::2                   234458      2.66%     90.13% # Number of insts issued each cycle (Count)
system.cpu0.numIssuedDist::3                   252481      2.86%     92.99% # Number of insts issued each cycle (Count)
system.cpu0.numIssuedDist::4                   206681      2.34%     95.34% # Number of insts issued each cycle (Count)
system.cpu0.numIssuedDist::5                   163935      1.86%     97.19% # Number of insts issued each cycle (Count)
system.cpu0.numIssuedDist::6                   116837      1.32%     98.52% # Number of insts issued each cycle (Count)
system.cpu0.numIssuedDist::7                    80576      0.91%     99.43% # Number of insts issued each cycle (Count)
system.cpu0.numIssuedDist::8                    50381      0.57%    100.00% # Number of insts issued each cycle (Count)
system.cpu0.numIssuedDist::overflows                0      0.00%    100.00% # Number of insts issued each cycle (Count)
system.cpu0.numIssuedDist::min_value                0                       # Number of insts issued each cycle (Count)
system.cpu0.numIssuedDist::max_value                8                       # Number of insts issued each cycle (Count)
system.cpu0.numIssuedDist::total              8827557                       # Number of insts issued each cycle (Count)
system.cpu0.statFuBusy::No_OpClass                  0      0.00%      0.00% # attempts to use FU when none available (Count)
system.cpu0.statFuBusy::IntAlu                  48768     66.68%     66.68% # attempts to use FU when none available (Count)
system.cpu0.statFuBusy::IntMult                     0      0.00%     66.68% # attempts to use FU when none available (Count)
system.cpu0.statFuBusy::IntDiv                      0      0.00%     66.68% # attempts to use FU when none available (Count)
system.cpu0.statFuBusy::FloatAdd                    0      0.00%     66.68% # attempts to use FU when none available (Count)
system.cpu0.statFuBusy::FloatCmp                    0      0.00%     66.68% # attempts to use FU when none available (Count)
system.cpu0.statFuBusy::FloatCvt                    0      0.00%     66.68% # attempts to use FU when none available (Count)
system.cpu0.statFuBusy::FloatMult                   0      0.00%     66.68% # attempts to use FU when none available (Count)
system.cpu0.statFuBusy::FloatMultAcc                0      0.00%     66.68% # attempts to use FU when none available (Count)
system.cpu0.statFuBusy::FloatDiv                    0      0.00%     66.68% # attempts to use FU when none available (Count)
system.cpu0.statFuBusy::FloatMisc                   0      0.00%     66.68% # attempts to use FU when none available (Count)
system.cpu0.statFuBusy::FloatSqrt                   0      0.00%     66.68% # attempts to use FU when none available (Count)
system.cpu0.statFuBusy::SimdAdd                     3      0.00%     66.68% # attempts to use FU when none available (Count)
system.cpu0.statFuBusy::SimdAddAcc                  0      0.00%     66.68% # attempts to use FU when none available (Count)
system.cpu0.statFuBusy::SimdAlu                   179      0.24%     66.93% # attempts to use FU when none available (Count)
system.cpu0.statFuBusy::SimdCmp                     0      0.00%     66.93% # attempts to use FU when none available (Count)
system.cpu0.statFuBusy::SimdCvt                   259      0.35%     67.28% # attempts to use FU when none available (Count)
system.cpu0.statFuBusy::SimdMisc                    6      0.01%     67.29% # attempts to use FU when none available (Count)
system.cpu0.statFuBusy::SimdMult                    0      0.00%     67.29% # attempts to use FU when none available (Count)
system.cpu0.statFuBusy::SimdMultAcc                 0      0.00%     67.29% # attempts to use FU when none available (Count)
system.cpu0.statFuBusy::SimdShift                 114      0.16%     67.45% # attempts to use FU when none available (Count)
system.cpu0.statFuBusy::SimdShiftAcc                0      0.00%     67.45% # attempts to use FU when none available (Count)
system.cpu0.statFuBusy::SimdDiv                     0      0.00%     67.45% # attempts to use FU when none available (Count)
system.cpu0.statFuBusy::SimdSqrt                    0      0.00%     67.45% # attempts to use FU when none available (Count)
system.cpu0.statFuBusy::SimdFloatAdd                0      0.00%     67.45% # attempts to use FU when none available (Count)
system.cpu0.statFuBusy::SimdFloatAlu                0      0.00%     67.45% # attempts to use FU when none available (Count)
system.cpu0.statFuBusy::SimdFloatCmp                0      0.00%     67.45% # attempts to use FU when none available (Count)
system.cpu0.statFuBusy::SimdFloatCvt                0      0.00%     67.45% # attempts to use FU when none available (Count)
system.cpu0.statFuBusy::SimdFloatDiv                0      0.00%     67.45% # attempts to use FU when none available (Count)
system.cpu0.statFuBusy::SimdFloatMisc               0      0.00%     67.45% # attempts to use FU when none available (Count)
system.cpu0.statFuBusy::SimdFloatMult               0      0.00%     67.45% # attempts to use FU when none available (Count)
system.cpu0.statFuBusy::SimdFloatMultAcc            0      0.00%     67.45% # attempts to use FU when none available (Count)
system.cpu0.statFuBusy::SimdFloatSqrt               0      0.00%     67.45% # attempts to use FU when none available (Count)
system.cpu0.statFuBusy::SimdReduceAdd               0      0.00%     67.45% # attempts to use FU when none available (Count)
system.cpu0.statFuBusy::SimdReduceAlu               0      0.00%     67.45% # attempts to use FU when none available (Count)
system.cpu0.statFuBusy::SimdReduceCmp               0      0.00%     67.45% # attempts to use FU when none available (Count)
system.cpu0.statFuBusy::SimdFloatReduceAdd            0      0.00%     67.45% # attempts to use FU when none available (Count)
system.cpu0.statFuBusy::SimdFloatReduceCmp            0      0.00%     67.45% # attempts to use FU when none available (Count)
system.cpu0.statFuBusy::SimdAes                     0      0.00%     67.45% # attempts to use FU when none available (Count)
system.cpu0.statFuBusy::SimdAesMix                  0      0.00%     67.45% # attempts to use FU when none available (Count)
system.cpu0.statFuBusy::SimdSha1Hash                0      0.00%     67.45% # attempts to use FU when none available (Count)
system.cpu0.statFuBusy::SimdSha1Hash2               0      0.00%     67.45% # attempts to use FU when none available (Count)
system.cpu0.statFuBusy::SimdSha256Hash              0      0.00%     67.45% # attempts to use FU when none available (Count)
system.cpu0.statFuBusy::SimdSha256Hash2             0      0.00%     67.45% # attempts to use FU when none available (Count)
system.cpu0.statFuBusy::SimdShaSigma2               0      0.00%     67.45% # attempts to use FU when none available (Count)
system.cpu0.statFuBusy::SimdShaSigma3               0      0.00%     67.45% # attempts to use FU when none available (Count)
system.cpu0.statFuBusy::SimdPredAlu                 0      0.00%     67.45% # attempts to use FU when none available (Count)
system.cpu0.statFuBusy::MemRead                 12870     17.60%     85.04% # attempts to use FU when none available (Count)
system.cpu0.statFuBusy::MemWrite                10104     13.82%     98.86% # attempts to use FU when none available (Count)
system.cpu0.statFuBusy::FloatMemRead              532      0.73%     99.59% # attempts to use FU when none available (Count)
system.cpu0.statFuBusy::FloatMemWrite             302      0.41%    100.00% # attempts to use FU when none available (Count)
system.cpu0.statFuBusy::IprAccess                   0      0.00%    100.00% # attempts to use FU when none available (Count)
system.cpu0.statFuBusy::InstPrefetch                0      0.00%    100.00% # attempts to use FU when none available (Count)
system.cpu0.statIssuedInstType_0::No_OpClass        29211      0.61%      0.61% # Number of instructions issued per FU type, per thread (Count)
system.cpu0.statIssuedInstType_0::IntAlu      3666044     77.14%     77.76% # Number of instructions issued per FU type, per thread (Count)
system.cpu0.statIssuedInstType_0::IntMult         1186      0.02%     77.78% # Number of instructions issued per FU type, per thread (Count)
system.cpu0.statIssuedInstType_0::IntDiv        38505      0.81%     78.59% # Number of instructions issued per FU type, per thread (Count)
system.cpu0.statIssuedInstType_0::FloatAdd        10794      0.23%     78.82% # Number of instructions issued per FU type, per thread (Count)
system.cpu0.statIssuedInstType_0::FloatCmp            0      0.00%     78.82% # Number of instructions issued per FU type, per thread (Count)
system.cpu0.statIssuedInstType_0::FloatCvt         1240      0.03%     78.85% # Number of instructions issued per FU type, per thread (Count)
system.cpu0.statIssuedInstType_0::FloatMult            0      0.00%     78.85% # Number of instructions issued per FU type, per thread (Count)
system.cpu0.statIssuedInstType_0::FloatMultAcc            0      0.00%     78.85% # Number of instructions issued per FU type, per thread (Count)
system.cpu0.statIssuedInstType_0::FloatDiv            0      0.00%     78.85% # Number of instructions issued per FU type, per thread (Count)
system.cpu0.statIssuedInstType_0::FloatMisc            0      0.00%     78.85% # Number of instructions issued per FU type, per thread (Count)
system.cpu0.statIssuedInstType_0::FloatSqrt            0      0.00%     78.85% # Number of instructions issued per FU type, per thread (Count)
system.cpu0.statIssuedInstType_0::SimdAdd         6445      0.14%     78.98% # Number of instructions issued per FU type, per thread (Count)
system.cpu0.statIssuedInstType_0::SimdAddAcc            0      0.00%     78.98% # Number of instructions issued per FU type, per thread (Count)
system.cpu0.statIssuedInstType_0::SimdAlu        16037      0.34%     79.32% # Number of instructions issued per FU type, per thread (Count)
system.cpu0.statIssuedInstType_0::SimdCmp           12      0.00%     79.32% # Number of instructions issued per FU type, per thread (Count)
system.cpu0.statIssuedInstType_0::SimdCvt        15183      0.32%     79.64% # Number of instructions issued per FU type, per thread (Count)
system.cpu0.statIssuedInstType_0::SimdMisc        15844      0.33%     79.97% # Number of instructions issued per FU type, per thread (Count)
system.cpu0.statIssuedInstType_0::SimdMult            0      0.00%     79.97% # Number of instructions issued per FU type, per thread (Count)
system.cpu0.statIssuedInstType_0::SimdMultAcc            0      0.00%     79.97% # Number of instructions issued per FU type, per thread (Count)
system.cpu0.statIssuedInstType_0::SimdShift         1736      0.04%     80.01% # Number of instructions issued per FU type, per thread (Count)
system.cpu0.statIssuedInstType_0::SimdShiftAcc            0      0.00%     80.01% # Number of instructions issued per FU type, per thread (Count)
system.cpu0.statIssuedInstType_0::SimdDiv            0      0.00%     80.01% # Number of instructions issued per FU type, per thread (Count)
system.cpu0.statIssuedInstType_0::SimdSqrt            0      0.00%     80.01% # Number of instructions issued per FU type, per thread (Count)
system.cpu0.statIssuedInstType_0::SimdFloatAdd          385      0.01%     80.02% # Number of instructions issued per FU type, per thread (Count)
system.cpu0.statIssuedInstType_0::SimdFloatAlu            0      0.00%     80.02% # Number of instructions issued per FU type, per thread (Count)
system.cpu0.statIssuedInstType_0::SimdFloatCmp            0      0.00%     80.02% # Number of instructions issued per FU type, per thread (Count)
system.cpu0.statIssuedInstType_0::SimdFloatCvt          328      0.01%     80.02% # Number of instructions issued per FU type, per thread (Count)
system.cpu0.statIssuedInstType_0::SimdFloatDiv            0      0.00%     80.02% # Number of instructions issued per FU type, per thread (Count)
system.cpu0.statIssuedInstType_0::SimdFloatMisc            0      0.00%     80.02% # Number of instructions issued per FU type, per thread (Count)
system.cpu0.statIssuedInstType_0::SimdFloatMult          201      0.00%     80.03% # Number of instructions issued per FU type, per thread (Count)
system.cpu0.statIssuedInstType_0::SimdFloatMultAcc            0      0.00%     80.03% # Number of instructions issued per FU type, per thread (Count)
system.cpu0.statIssuedInstType_0::SimdFloatSqrt            0      0.00%     80.03% # Number of instructions issued per FU type, per thread (Count)
system.cpu0.statIssuedInstType_0::SimdReduceAdd            0      0.00%     80.03% # Number of instructions issued per FU type, per thread (Count)
system.cpu0.statIssuedInstType_0::SimdReduceAlu            0      0.00%     80.03% # Number of instructions issued per FU type, per thread (Count)
system.cpu0.statIssuedInstType_0::SimdReduceCmp            0      0.00%     80.03% # Number of instructions issued per FU type, per thread (Count)
system.cpu0.statIssuedInstType_0::SimdFloatReduceAdd            0      0.00%     80.03% # Number of instructions issued per FU type, per thread (Count)
system.cpu0.statIssuedInstType_0::SimdFloatReduceCmp            0      0.00%     80.03% # Number of instructions issued per FU type, per thread (Count)
system.cpu0.statIssuedInstType_0::SimdAes            0      0.00%     80.03% # Number of instructions issued per FU type, per thread (Count)
system.cpu0.statIssuedInstType_0::SimdAesMix            0      0.00%     80.03% # Number of instructions issued per FU type, per thread (Count)
system.cpu0.statIssuedInstType_0::SimdSha1Hash            0      0.00%     80.03% # Number of instructions issued per FU type, per thread (Count)
system.cpu0.statIssuedInstType_0::SimdSha1Hash2            0      0.00%     80.03% # Number of instructions issued per FU type, per thread (Count)
system.cpu0.statIssuedInstType_0::SimdSha256Hash            0      0.00%     80.03% # Number of instructions issued per FU type, per thread (Count)
system.cpu0.statIssuedInstType_0::SimdSha256Hash2            0      0.00%     80.03% # Number of instructions issued per FU type, per thread (Count)
system.cpu0.statIssuedInstType_0::SimdShaSigma2            0      0.00%     80.03% # Number of instructions issued per FU type, per thread (Count)
system.cpu0.statIssuedInstType_0::SimdShaSigma3            0      0.00%     80.03% # Number of instructions issued per FU type, per thread (Count)
system.cpu0.statIssuedInstType_0::SimdPredAlu            0      0.00%     80.03% # Number of instructions issued per FU type, per thread (Count)
system.cpu0.statIssuedInstType_0::MemRead       648185     13.64%     93.67% # Number of instructions issued per FU type, per thread (Count)
system.cpu0.statIssuedInstType_0::MemWrite       260013      5.47%     99.14% # Number of instructions issued per FU type, per thread (Count)
system.cpu0.statIssuedInstType_0::FloatMemRead        23578      0.50%     99.64% # Number of instructions issued per FU type, per thread (Count)
system.cpu0.statIssuedInstType_0::FloatMemWrite        17277      0.36%    100.00% # Number of instructions issued per FU type, per thread (Count)
system.cpu0.statIssuedInstType_0::IprAccess            0      0.00%    100.00% # Number of instructions issued per FU type, per thread (Count)
system.cpu0.statIssuedInstType_0::InstPrefetch            0      0.00%    100.00% # Number of instructions issued per FU type, per thread (Count)
system.cpu0.statIssuedInstType_0::total       4752204                       # Number of instructions issued per FU type, per thread (Count)
system.cpu0.issueRate                        0.466563                       # Inst issue rate ((Count/Cycle))
system.cpu0.fuBusy                              73137                       # FU busy when requested (Count)
system.cpu0.fuBusyRate                       0.015390                       # FU busy rate (busy events/executed inst) ((Count/Count))
system.cpu0.intInstQueueReads                18178182                       # Number of integer instruction queue reads (Count)
system.cpu0.intInstQueueWrites                5927052                       # Number of integer instruction queue writes (Count)
system.cpu0.intInstQueueWakeupAccesses        4595180                       # Number of integer instruction queue wakeup accesses (Count)
system.cpu0.fpInstQueueReads                   228709                       # Number of floating instruction queue reads (Count)
system.cpu0.fpInstQueueWrites                  154613                       # Number of floating instruction queue writes (Count)
system.cpu0.fpInstQueueWakeupAccesses          110323                       # Number of floating instruction queue wakeup accesses (Count)
system.cpu0.vecInstQueueReads                       0                       # Number of vector instruction queue reads (Count)
system.cpu0.vecInstQueueWrites                      0                       # Number of vector instruction queue writes (Count)
system.cpu0.vecInstQueueWakeupAccesses              0                       # Number of vector instruction queue wakeup accesses (Count)
system.cpu0.intAluAccesses                    4681186                       # Number of integer alu accesses (Count)
system.cpu0.fpAluAccesses                      114944                       # Number of floating point alu accesses (Count)
system.cpu0.vecAluAccesses                          0                       # Number of vector alu accesses (Count)
system.cpu0.numInsts                          4727764                       # Number of executed instructions (Count)
system.cpu0.numLoadInsts                       666711                       # Number of load instructions executed (Count)
system.cpu0.numSquashedInsts                    24440                       # Number of squashed instructions skipped in execute (Count)
system.cpu0.numSwp                                  0                       # Number of swp insts executed (Count)
system.cpu0.numNop                                  0                       # Number of nop insts executed (Count)
system.cpu0.numRefs                            941776                       # Number of memory reference insts executed (Count)
system.cpu0.numBranches                        410112                       # Number of branches executed (Count)
system.cpu0.numStoreInsts                      275065                       # Number of stores executed (Count)
system.cpu0.numRate                          0.464164                       # Inst execution rate ((Count/Cycle))
system.cpu0.timesIdled                           2703                       # Number of times that the entire CPU went into an idle state and unscheduled itself (Count)
system.cpu0.idleCycles                        1358000                       # Total number of cycles that the CPU has spent unscheduled due to idling (Cycle)
system.cpu0.committedInsts                    2418663                       # Number of Instructions Simulated (Count)
system.cpu0.committedOps                      4170248                       # Number of Ops (including micro ops) Simulated (Count)
system.cpu0.cpi                              4.211234                       # CPI: Cycles Per Instruction ((Cycle/Count))
system.cpu0.totalCpi                         4.211234                       # CPI: Total CPI of All Threads ((Cycle/Count))
system.cpu0.ipc                              0.237460                       # IPC: Instructions Per Cycle ((Count/Cycle))
system.cpu0.totalIpc                         0.237460                       # IPC: Total IPC of All Threads ((Count/Cycle))
system.cpu0.intRegfileReads                   6469581                       # Number of integer regfile reads (Count)
system.cpu0.intRegfileWrites                  3672220                       # Number of integer regfile writes (Count)
system.cpu0.fpRegfileReads                     146167                       # Number of floating regfile reads (Count)
system.cpu0.fpRegfileWrites                     84430                       # Number of floating regfile writes (Count)
system.cpu0.ccRegfileReads                    2490129                       # number of cc regfile reads (Count)
system.cpu0.ccRegfileWrites                   2114777                       # number of cc regfile writes (Count)
system.cpu0.miscRegfileReads                  1803779                       # number of misc regfile reads (Count)
system.cpu0.miscRegfileWrites                     684                       # number of misc regfile writes (Count)
system.cpu0.MemDepUnit__0.insertedLoads        703835                       # Number of loads inserted to the mem dependence unit. (Count)
system.cpu0.MemDepUnit__0.insertedStores       292113                       # Number of stores inserted to the mem dependence unit. (Count)
system.cpu0.MemDepUnit__0.conflictingLoads        31121                       # Number of conflicting loads. (Count)
system.cpu0.MemDepUnit__0.conflictingStores        17346                       # Number of conflicting stores. (Count)
system.cpu0.MemDepUnit__1.insertedLoads             0                       # Number of loads inserted to the mem dependence unit. (Count)
system.cpu0.MemDepUnit__1.insertedStores            0                       # Number of stores inserted to the mem dependence unit. (Count)
system.cpu0.MemDepUnit__1.conflictingLoads            0                       # Number of conflicting loads. (Count)
system.cpu0.MemDepUnit__1.conflictingStores            0                       # Number of conflicting stores. (Count)
system.cpu0.MemDepUnit__2.insertedLoads             0                       # Number of loads inserted to the mem dependence unit. (Count)
system.cpu0.MemDepUnit__2.insertedStores            0                       # Number of stores inserted to the mem dependence unit. (Count)
system.cpu0.MemDepUnit__2.conflictingLoads            0                       # Number of conflicting loads. (Count)
system.cpu0.MemDepUnit__2.conflictingStores            0                       # Number of conflicting stores. (Count)
system.cpu0.MemDepUnit__3.insertedLoads             0                       # Number of loads inserted to the mem dependence unit. (Count)
system.cpu0.MemDepUnit__3.insertedStores            0                       # Number of stores inserted to the mem dependence unit. (Count)
system.cpu0.MemDepUnit__3.conflictingLoads            0                       # Number of conflicting loads. (Count)
system.cpu0.MemDepUnit__3.conflictingStores            0                       # Number of conflicting stores. (Count)
system.cpu0.branchPred.lookups                 508978                       # Number of BP lookups (Count)
system.cpu0.branchPred.condPredicted           435120                       # Number of conditional branches predicted (Count)
system.cpu0.branchPred.condIncorrect            14394                       # Number of conditional branches incorrect (Count)
system.cpu0.branchPred.BTBLookups              271392                       # Number of BTB lookups (Count)
system.cpu0.branchPred.BTBUpdates                7743                       # Number of BTB updates (Count)
system.cpu0.branchPred.BTBHits                 267204                       # Number of BTB hits (Count)
system.cpu0.branchPred.BTBHitRatio           0.984568                       # BTB Hit Ratio (Ratio)
system.cpu0.branchPred.RASUsed                  17603                       # Number of times the RAS was used to get a target. (Count)
system.cpu0.branchPred.RASIncorrect                11                       # Number of incorrect RAS predictions. (Count)
system.cpu0.branchPred.indirectLookups          11920                       # Number of indirect predictor lookups. (Count)
system.cpu0.branchPred.indirectHits              5843                       # Number of indirect target hits. (Count)
system.cpu0.branchPred.indirectMisses            6077                       # Number of indirect misses. (Count)
system.cpu0.branchPred.indirectMispredicted         1244                       # Number of mispredicted indirect branches. (Count)
system.cpu0.commit.commitSquashedInsts         950307                       # The number of squashed insts skipped by commit (Count)
system.cpu0.commit.commitNonSpecStalls           1230                       # The number of times commit has been forced to stall to communicate backwards (Count)
system.cpu0.commit.branchMispredicts            14971                       # The number of times a branch was mispredicted (Count)
system.cpu0.commit.numCommittedDist::samples      8698095                       # Number of insts commited each cycle (Count)
system.cpu0.commit.numCommittedDist::mean     0.479444                       # Number of insts commited each cycle (Count)
system.cpu0.commit.numCommittedDist::stdev     1.557412                       # Number of insts commited each cycle (Count)
system.cpu0.commit.numCommittedDist::underflows            0      0.00%      0.00% # Number of insts commited each cycle (Count)
system.cpu0.commit.numCommittedDist::0        7630574     87.73%     87.73% # Number of insts commited each cycle (Count)
system.cpu0.commit.numCommittedDist::1         233687      2.69%     90.41% # Number of insts commited each cycle (Count)
system.cpu0.commit.numCommittedDist::2         120940      1.39%     91.80% # Number of insts commited each cycle (Count)
system.cpu0.commit.numCommittedDist::3         272948      3.14%     94.94% # Number of insts commited each cycle (Count)
system.cpu0.commit.numCommittedDist::4          53926      0.62%     95.56% # Number of insts commited each cycle (Count)
system.cpu0.commit.numCommittedDist::5         121584      1.40%     96.96% # Number of insts commited each cycle (Count)
system.cpu0.commit.numCommittedDist::6          22869      0.26%     97.22% # Number of insts commited each cycle (Count)
system.cpu0.commit.numCommittedDist::7          17537      0.20%     97.42% # Number of insts commited each cycle (Count)
system.cpu0.commit.numCommittedDist::8         224030      2.58%    100.00% # Number of insts commited each cycle (Count)
system.cpu0.commit.numCommittedDist::overflows            0      0.00%    100.00% # Number of insts commited each cycle (Count)
system.cpu0.commit.numCommittedDist::min_value            0                       # Number of insts commited each cycle (Count)
system.cpu0.commit.numCommittedDist::max_value            8                       # Number of insts commited each cycle (Count)
system.cpu0.commit.numCommittedDist::total      8698095                       # Number of insts commited each cycle (Count)
system.cpu0.commit.instsCommitted             2418663                       # Number of instructions committed (Count)
system.cpu0.commit.opsCommitted               4170248                       # Number of ops (including micro ops) committed (Count)
system.cpu0.commit.memRefs                     811607                       # Number of memory references committed (Count)
system.cpu0.commit.loads                       577620                       # Number of loads committed (Count)
system.cpu0.commit.amos                             0                       # Number of atomic instructions committed (Count)
system.cpu0.commit.membars                        364                       # Number of memory barriers committed (Count)
system.cpu0.commit.branches                    384570                       # Number of branches committed (Count)
system.cpu0.commit.vectorInstructions               0                       # Number of committed Vector instructions. (Count)
system.cpu0.commit.floating                     96663                       # Number of committed floating point instructions. (Count)
system.cpu0.commit.integer                    4094380                       # Number of committed integer instructions. (Count)
system.cpu0.commit.functionCalls                14553                       # Number of function calls committed. (Count)
system.cpu0.commit.committedInstType_0::No_OpClass        17367      0.42%      0.42% # Class of committed instruction (Count)
system.cpu0.commit.committedInstType_0::IntAlu      3245831     77.83%     78.25% # Class of committed instruction (Count)
system.cpu0.commit.committedInstType_0::IntMult         1164      0.03%     78.28% # Class of committed instruction (Count)
system.cpu0.commit.committedInstType_0::IntDiv        36166      0.87%     79.14% # Class of committed instruction (Count)
system.cpu0.commit.committedInstType_0::FloatAdd         9322      0.22%     79.37% # Class of committed instruction (Count)
system.cpu0.commit.committedInstType_0::FloatCmp            0      0.00%     79.37% # Class of committed instruction (Count)
system.cpu0.commit.committedInstType_0::FloatCvt         1216      0.03%     79.40% # Class of committed instruction (Count)
system.cpu0.commit.committedInstType_0::FloatMult            0      0.00%     79.40% # Class of committed instruction (Count)
system.cpu0.commit.committedInstType_0::FloatMultAcc            0      0.00%     79.40% # Class of committed instruction (Count)
system.cpu0.commit.committedInstType_0::FloatDiv            0      0.00%     79.40% # Class of committed instruction (Count)
system.cpu0.commit.committedInstType_0::FloatMisc            0      0.00%     79.40% # Class of committed instruction (Count)
system.cpu0.commit.committedInstType_0::FloatSqrt            0      0.00%     79.40% # Class of committed instruction (Count)
system.cpu0.commit.committedInstType_0::SimdAdd         5654      0.14%     79.53% # Class of committed instruction (Count)
system.cpu0.commit.committedInstType_0::SimdAddAcc            0      0.00%     79.53% # Class of committed instruction (Count)
system.cpu0.commit.committedInstType_0::SimdAlu        12972      0.31%     79.84% # Class of committed instruction (Count)
system.cpu0.commit.committedInstType_0::SimdCmp           12      0.00%     79.84% # Class of committed instruction (Count)
system.cpu0.commit.committedInstType_0::SimdCvt        12830      0.31%     80.15% # Class of committed instruction (Count)
system.cpu0.commit.committedInstType_0::SimdMisc        14470      0.35%     80.50% # Class of committed instruction (Count)
system.cpu0.commit.committedInstType_0::SimdMult            0      0.00%     80.50% # Class of committed instruction (Count)
system.cpu0.commit.committedInstType_0::SimdMultAcc            0      0.00%     80.50% # Class of committed instruction (Count)
system.cpu0.commit.committedInstType_0::SimdShift          737      0.02%     80.52% # Class of committed instruction (Count)
system.cpu0.commit.committedInstType_0::SimdShiftAcc            0      0.00%     80.52% # Class of committed instruction (Count)
system.cpu0.commit.committedInstType_0::SimdDiv            0      0.00%     80.52% # Class of committed instruction (Count)
system.cpu0.commit.committedInstType_0::SimdSqrt            0      0.00%     80.52% # Class of committed instruction (Count)
system.cpu0.commit.committedInstType_0::SimdFloatAdd          384      0.01%     80.53% # Class of committed instruction (Count)
system.cpu0.commit.committedInstType_0::SimdFloatAlu            0      0.00%     80.53% # Class of committed instruction (Count)
system.cpu0.commit.committedInstType_0::SimdFloatCmp            0      0.00%     80.53% # Class of committed instruction (Count)
system.cpu0.commit.committedInstType_0::SimdFloatCvt          322      0.01%     80.53% # Class of committed instruction (Count)
system.cpu0.commit.committedInstType_0::SimdFloatDiv            0      0.00%     80.53% # Class of committed instruction (Count)
system.cpu0.commit.committedInstType_0::SimdFloatMisc            0      0.00%     80.53% # Class of committed instruction (Count)
system.cpu0.commit.committedInstType_0::SimdFloatMult          194      0.00%     80.54% # Class of committed instruction (Count)
system.cpu0.commit.committedInstType_0::SimdFloatMultAcc            0      0.00%     80.54% # Class of committed instruction (Count)
system.cpu0.commit.committedInstType_0::SimdFloatSqrt            0      0.00%     80.54% # Class of committed instruction (Count)
system.cpu0.commit.committedInstType_0::SimdReduceAdd            0      0.00%     80.54% # Class of committed instruction (Count)
system.cpu0.commit.committedInstType_0::SimdReduceAlu            0      0.00%     80.54% # Class of committed instruction (Count)
system.cpu0.commit.committedInstType_0::SimdReduceCmp            0      0.00%     80.54% # Class of committed instruction (Count)
system.cpu0.commit.committedInstType_0::SimdFloatReduceAdd            0      0.00%     80.54% # Class of committed instruction (Count)
system.cpu0.commit.committedInstType_0::SimdFloatReduceCmp            0      0.00%     80.54% # Class of committed instruction (Count)
system.cpu0.commit.committedInstType_0::SimdAes            0      0.00%     80.54% # Class of committed instruction (Count)
system.cpu0.commit.committedInstType_0::SimdAesMix            0      0.00%     80.54% # Class of committed instruction (Count)
system.cpu0.commit.committedInstType_0::SimdSha1Hash            0      0.00%     80.54% # Class of committed instruction (Count)
system.cpu0.commit.committedInstType_0::SimdSha1Hash2            0      0.00%     80.54% # Class of committed instruction (Count)
system.cpu0.commit.committedInstType_0::SimdSha256Hash            0      0.00%     80.54% # Class of committed instruction (Count)
system.cpu0.commit.committedInstType_0::SimdSha256Hash2            0      0.00%     80.54% # Class of committed instruction (Count)
system.cpu0.commit.committedInstType_0::SimdShaSigma2            0      0.00%     80.54% # Class of committed instruction (Count)
system.cpu0.commit.committedInstType_0::SimdShaSigma3            0      0.00%     80.54% # Class of committed instruction (Count)
system.cpu0.commit.committedInstType_0::SimdPredAlu            0      0.00%     80.54% # Class of committed instruction (Count)
system.cpu0.commit.committedInstType_0::MemRead       559489     13.42%     93.95% # Class of committed instruction (Count)
system.cpu0.commit.committedInstType_0::MemWrite       217679      5.22%     99.17% # Class of committed instruction (Count)
system.cpu0.commit.committedInstType_0::FloatMemRead        18131      0.43%     99.61% # Class of committed instruction (Count)
system.cpu0.commit.committedInstType_0::FloatMemWrite        16308      0.39%    100.00% # Class of committed instruction (Count)
system.cpu0.commit.committedInstType_0::IprAccess            0      0.00%    100.00% # Class of committed instruction (Count)
system.cpu0.commit.committedInstType_0::InstPrefetch            0      0.00%    100.00% # Class of committed instruction (Count)
system.cpu0.commit.committedInstType_0::total      4170248                       # Class of committed instruction (Count)
system.cpu0.commit.commitEligibleSamples       224030                       # number cycles where commit BW limit reached (Cycle)
system.cpu0.decode.idleCycles                  593876                       # Number of cycles decode is idle (Cycle)
system.cpu0.decode.blockedCycles              7460844                       # Number of cycles decode is blocked (Cycle)
system.cpu0.decode.runCycles                   548508                       # Number of cycles decode is running (Cycle)
system.cpu0.decode.unblockCycles               208570                       # Number of cycles decode is unblocking (Cycle)
system.cpu0.decode.squashCycles                 15759                       # Number of cycles decode is squashing (Cycle)
system.cpu0.decode.branchResolved              255764                       # Number of times decode resolved a branch (Count)
system.cpu0.decode.branchMispred                 1430                       # Number of times decode detected a branch misprediction (Count)
system.cpu0.decode.decodedInsts               5295532                       # Number of instructions handled by decode (Count)
system.cpu0.decode.squashedInsts                 7298                       # Number of squashed instructions handled by decode (Count)
system.cpu0.fetch.icacheStallCycles            533390                       # Number of cycles fetch is stalled on an Icache miss (Cycle)
system.cpu0.fetch.insts                       3202953                       # Number of instructions fetch has processed (Count)
system.cpu0.fetch.branches                     508978                       # Number of branches that fetch encountered (Count)
system.cpu0.fetch.predictedBranches            290650                       # Number of branches that fetch has predicted taken (Count)
system.cpu0.fetch.cycles                      8054184                       # Number of cycles fetch has run and was not squashing or blocked (Cycle)
system.cpu0.fetch.squashCycles                  34324                       # Number of cycles fetch has spent squashing (Cycle)
system.cpu0.fetch.miscStallCycles                5696                       # Number of cycles fetch has spent waiting on interrupts, or bad addresses, or out of MSHRs (Cycle)
system.cpu0.fetch.pendingTrapStallCycles        13652                       # Number of stall cycles due to pending traps (Cycle)
system.cpu0.fetch.icacheWaitRetryStallCycles       203473                       # Number of stall cycles due to full MSHR (Cycle)
system.cpu0.fetch.cacheLines                   265171                       # Number of cache lines fetched (Count)
system.cpu0.fetch.icacheSquashes                 3804                       # Number of outstanding Icache misses that were squashed (Count)
system.cpu0.fetch.nisnDist::samples           8827557                       # Number of instructions fetched each cycle (Total) (Count)
system.cpu0.fetch.nisnDist::mean             0.627647                       # Number of instructions fetched each cycle (Total) (Count)
system.cpu0.fetch.nisnDist::stdev            2.001621                       # Number of instructions fetched each cycle (Total) (Count)
system.cpu0.fetch.nisnDist::underflows              0      0.00%      0.00% # Number of instructions fetched each cycle (Total) (Count)
system.cpu0.fetch.nisnDist::0                 7922705     89.75%     89.75% # Number of instructions fetched each cycle (Total) (Count)
system.cpu0.fetch.nisnDist::1                   43792      0.50%     90.25% # Number of instructions fetched each cycle (Total) (Count)
system.cpu0.fetch.nisnDist::2                   51427      0.58%     90.83% # Number of instructions fetched each cycle (Total) (Count)
system.cpu0.fetch.nisnDist::3                   58670      0.66%     91.49% # Number of instructions fetched each cycle (Total) (Count)
system.cpu0.fetch.nisnDist::4                  126688      1.44%     92.93% # Number of instructions fetched each cycle (Total) (Count)
system.cpu0.fetch.nisnDist::5                   33670      0.38%     93.31% # Number of instructions fetched each cycle (Total) (Count)
system.cpu0.fetch.nisnDist::6                   65049      0.74%     94.05% # Number of instructions fetched each cycle (Total) (Count)
system.cpu0.fetch.nisnDist::7                   51907      0.59%     94.63% # Number of instructions fetched each cycle (Total) (Count)
system.cpu0.fetch.nisnDist::8                  473649      5.37%    100.00% # Number of instructions fetched each cycle (Total) (Count)
system.cpu0.fetch.nisnDist::overflows               0      0.00%    100.00% # Number of instructions fetched each cycle (Total) (Count)
system.cpu0.fetch.nisnDist::min_value               0                       # Number of instructions fetched each cycle (Total) (Count)
system.cpu0.fetch.nisnDist::max_value               8                       # Number of instructions fetched each cycle (Total) (Count)
system.cpu0.fetch.nisnDist::total             8827557                       # Number of instructions fetched each cycle (Total) (Count)
system.cpu0.fetch.branchRate                 0.049971                       # Number of branch fetches per cycle (Ratio)
system.cpu0.fetch.rate                       0.314460                       # Number of inst fetches per cycle ((Count/Cycle))
system.cpu0.iew.idleCycles                          0                       # Number of cycles IEW is idle (Cycle)
system.cpu0.iew.squashCycles                    15759                       # Number of cycles IEW is squashing (Cycle)
system.cpu0.iew.blockCycles                   5706949                       # Number of cycles IEW is blocking (Cycle)
system.cpu0.iew.unblockCycles                  111584                       # Number of cycles IEW is unblocking (Cycle)
system.cpu0.iew.dispatchedInsts               5125808                       # Number of instructions dispatched to IQ (Count)
system.cpu0.iew.dispSquashedInsts                1342                       # Number of squashed instructions skipped by dispatch (Count)
system.cpu0.iew.dispLoadInsts                  703835                       # Number of dispatched load instructions (Count)
system.cpu0.iew.dispStoreInsts                 292113                       # Number of dispatched store instructions (Count)
system.cpu0.iew.dispNonSpecInsts                  995                       # Number of dispatched non-speculative instructions (Count)
system.cpu0.iew.iqFullEvents                    10158                       # Number of times the IQ has become full, causing a stall (Count)
system.cpu0.iew.lsqFullEvents                   95206                       # Number of times the LSQ has become full, causing a stall (Count)
system.cpu0.iew.memOrderViolationEvents           307                       # Number of memory order violations (Count)
system.cpu0.iew.predictedTakenIncorrect          5680                       # Number of branches that were predicted taken incorrectly (Count)
system.cpu0.iew.predictedNotTakenIncorrect        11503                       # Number of branches that were predicted not taken incorrectly (Count)
system.cpu0.iew.branchMispredicts               17183                       # Number of branch mispredicts detected at execute (Count)
system.cpu0.iew.instsToCommit                 4714485                       # Cumulative count of insts sent to commit (Count)
system.cpu0.iew.writebackCount                4705503                       # Cumulative count of insts written-back (Count)
system.cpu0.iew.producerInst                  3695804                       # Number of instructions producing a value (Count)
system.cpu0.iew.consumerInst                  6822212                       # Number of instructions consuming a value (Count)
system.cpu0.iew.wbRate                       0.461978                       # Insts written-back per cycle ((Count/Cycle))
system.cpu0.iew.wbFanout                     0.541731                       # Average fanout of values written-back ((Count/Count))
system.cpu0.interrupts.clk_domain.clock          8000                       # Clock period in ticks (Tick)
system.cpu0.lsq0.forwLoads                      62691                       # Number of loads that had data forwarded from stores (Count)
system.cpu0.lsq0.squashedLoads                 126215                       # Number of loads squashed (Count)
system.cpu0.lsq0.ignoredResponses                  67                       # Number of memory responses ignored because the instruction is squashed (Count)
system.cpu0.lsq0.memOrderViolation                307                       # Number of memory ordering violations (Count)
system.cpu0.lsq0.squashedStores                 58126                       # Number of stores squashed (Count)
system.cpu0.lsq0.rescheduledLoads                  26                       # Number of loads that were rescheduled (Count)
system.cpu0.lsq0.blockedByCache                  1510                       # Number of times an access to memory failed due to the cache being blocked (Count)
system.cpu0.lsq0.loadToUse::samples            577620                       # Distribution of cycle latency between the first time a load is issued and its completion (Unspecified)
system.cpu0.lsq0.loadToUse::mean            53.290487                       # Distribution of cycle latency between the first time a load is issued and its completion (Unspecified)
system.cpu0.lsq0.loadToUse::stdev          196.297287                       # Distribution of cycle latency between the first time a load is issued and its completion (Unspecified)
system.cpu0.lsq0.loadToUse::0-9                536050     92.80%     92.80% # Distribution of cycle latency between the first time a load is issued and its completion (Unspecified)
system.cpu0.lsq0.loadToUse::10-19                  38      0.01%     92.81% # Distribution of cycle latency between the first time a load is issued and its completion (Unspecified)
system.cpu0.lsq0.loadToUse::20-29                  43      0.01%     92.82% # Distribution of cycle latency between the first time a load is issued and its completion (Unspecified)
system.cpu0.lsq0.loadToUse::30-39                  30      0.01%     92.82% # Distribution of cycle latency between the first time a load is issued and its completion (Unspecified)
system.cpu0.lsq0.loadToUse::40-49                  74      0.01%     92.84% # Distribution of cycle latency between the first time a load is issued and its completion (Unspecified)
system.cpu0.lsq0.loadToUse::50-59                 100      0.02%     92.85% # Distribution of cycle latency between the first time a load is issued and its completion (Unspecified)
system.cpu0.lsq0.loadToUse::60-69                  35      0.01%     92.86% # Distribution of cycle latency between the first time a load is issued and its completion (Unspecified)
system.cpu0.lsq0.loadToUse::70-79                  18      0.00%     92.86% # Distribution of cycle latency between the first time a load is issued and its completion (Unspecified)
system.cpu0.lsq0.loadToUse::80-89                  22      0.00%     92.87% # Distribution of cycle latency between the first time a load is issued and its completion (Unspecified)
system.cpu0.lsq0.loadToUse::90-99                  24      0.00%     92.87% # Distribution of cycle latency between the first time a load is issued and its completion (Unspecified)
system.cpu0.lsq0.loadToUse::100-109                23      0.00%     92.87% # Distribution of cycle latency between the first time a load is issued and its completion (Unspecified)
system.cpu0.lsq0.loadToUse::110-119                27      0.00%     92.88% # Distribution of cycle latency between the first time a load is issued and its completion (Unspecified)
system.cpu0.lsq0.loadToUse::120-129                24      0.00%     92.88% # Distribution of cycle latency between the first time a load is issued and its completion (Unspecified)
system.cpu0.lsq0.loadToUse::130-139                12      0.00%     92.88% # Distribution of cycle latency between the first time a load is issued and its completion (Unspecified)
system.cpu0.lsq0.loadToUse::140-149                32      0.01%     92.89% # Distribution of cycle latency between the first time a load is issued and its completion (Unspecified)
system.cpu0.lsq0.loadToUse::150-159                41      0.01%     92.90% # Distribution of cycle latency between the first time a load is issued and its completion (Unspecified)
system.cpu0.lsq0.loadToUse::160-169                38      0.01%     92.90% # Distribution of cycle latency between the first time a load is issued and its completion (Unspecified)
system.cpu0.lsq0.loadToUse::170-179                92      0.02%     92.92% # Distribution of cycle latency between the first time a load is issued and its completion (Unspecified)
system.cpu0.lsq0.loadToUse::180-189               536      0.09%     93.01% # Distribution of cycle latency between the first time a load is issued and its completion (Unspecified)
system.cpu0.lsq0.loadToUse::190-199                13      0.00%     93.01% # Distribution of cycle latency between the first time a load is issued and its completion (Unspecified)
system.cpu0.lsq0.loadToUse::200-209                27      0.00%     93.02% # Distribution of cycle latency between the first time a load is issued and its completion (Unspecified)
system.cpu0.lsq0.loadToUse::210-219                39      0.01%     93.03% # Distribution of cycle latency between the first time a load is issued and its completion (Unspecified)
system.cpu0.lsq0.loadToUse::220-229                47      0.01%     93.03% # Distribution of cycle latency between the first time a load is issued and its completion (Unspecified)
system.cpu0.lsq0.loadToUse::230-239               106      0.02%     93.05% # Distribution of cycle latency between the first time a load is issued and its completion (Unspecified)
system.cpu0.lsq0.loadToUse::240-249               692      0.12%     93.17% # Distribution of cycle latency between the first time a load is issued and its completion (Unspecified)
system.cpu0.lsq0.loadToUse::250-259                19      0.00%     93.18% # Distribution of cycle latency between the first time a load is issued and its completion (Unspecified)
system.cpu0.lsq0.loadToUse::260-269                32      0.01%     93.18% # Distribution of cycle latency between the first time a load is issued and its completion (Unspecified)
system.cpu0.lsq0.loadToUse::270-279                72      0.01%     93.19% # Distribution of cycle latency between the first time a load is issued and its completion (Unspecified)
system.cpu0.lsq0.loadToUse::280-289                51      0.01%     93.20% # Distribution of cycle latency between the first time a load is issued and its completion (Unspecified)
system.cpu0.lsq0.loadToUse::290-299               199      0.03%     93.24% # Distribution of cycle latency between the first time a load is issued and its completion (Unspecified)
system.cpu0.lsq0.loadToUse::overflows           39064      6.76%    100.00% # Distribution of cycle latency between the first time a load is issued and its completion (Unspecified)
system.cpu0.lsq0.loadToUse::min_value               2                       # Distribution of cycle latency between the first time a load is issued and its completion (Unspecified)
system.cpu0.lsq0.loadToUse::max_value            2345                       # Distribution of cycle latency between the first time a load is issued and its completion (Unspecified)
system.cpu0.lsq0.loadToUse::total              577620                       # Distribution of cycle latency between the first time a load is issued and its completion (Unspecified)
system.cpu0.mmu.dtb.rdAccesses                 662547                       # TLB accesses on read requests (Count)
system.cpu0.mmu.dtb.wrAccesses                 275106                       # TLB accesses on write requests (Count)
system.cpu0.mmu.dtb.rdMisses                     3458                       # TLB misses on read requests (Count)
system.cpu0.mmu.dtb.wrMisses                      441                       # TLB misses on write requests (Count)
system.cpu0.mmu.dtb.walker.power_state.pwrStateResidencyTicks::UNDEFINED  32725442500                       # Cumulative time (in ticks) in various power states (Tick)
system.cpu0.mmu.itb.rdAccesses                      0                       # TLB accesses on read requests (Count)
system.cpu0.mmu.itb.wrAccesses                 267238                       # TLB accesses on write requests (Count)
system.cpu0.mmu.itb.rdMisses                        0                       # TLB misses on read requests (Count)
system.cpu0.mmu.itb.wrMisses                     2969                       # TLB misses on write requests (Count)
system.cpu0.mmu.itb.walker.power_state.pwrStateResidencyTicks::UNDEFINED  32725442500                       # Cumulative time (in ticks) in various power states (Tick)
system.cpu0.power_state.pwrStateResidencyTicks::ON  32725442500                       # Cumulative time (in ticks) in various power states (Tick)
system.cpu0.rename.squashCycles                 15759                       # Number of cycles rename is squashing (Cycle)
system.cpu0.rename.idleCycles                  669547                       # Number of cycles rename is idle (Cycle)
system.cpu0.rename.blockCycles                6426794                       # Number of cycles rename is blocking (Cycle)
system.cpu0.rename.serializeStallCycles         16787                       # count of cycles rename stalled for serializing inst (Cycle)
system.cpu0.rename.runCycles                   672480                       # Number of cycles rename is running (Cycle)
system.cpu0.rename.unblockCycles              1026190                       # Number of cycles rename is unblocking (Cycle)
system.cpu0.rename.renamedInsts               5224349                       # Number of instructions processed by rename (Count)
system.cpu0.rename.ROBFullEvents                14488                       # Number of times rename has blocked due to ROB full (Count)
system.cpu0.rename.IQFullEvents                271077                       # Number of times rename has blocked due to IQ full (Count)
system.cpu0.rename.LQFullEvents                108361                       # Number of times rename has blocked due to LQ full (Count)
system.cpu0.rename.SQFullEvents                594142                       # Number of times rename has blocked due to SQ full (Count)
system.cpu0.rename.fullRegistersEvents           2926                       # Number of times there has been no free registers (Count)
system.cpu0.rename.renamedOperands           10696061                       # Number of destination operands rename has renamed (Count)
system.cpu0.rename.lookups                   19317293                       # Number of register rename lookups that rename has made (Count)
system.cpu0.rename.intLookups                 7411296                       # Number of integer rename lookups (Count)
system.cpu0.rename.fpLookups                   181248                       # Number of floating rename lookups (Count)
system.cpu0.rename.committedMaps              8616440                       # Number of HB maps that are committed (Count)
system.cpu0.rename.undoneMaps                 2079621                       # Number of HB maps that are undone due to squashing (Count)
system.cpu0.rename.serializing                    762                       # count of serializing insts renamed (Count)
system.cpu0.rename.tempSerializing                749                       # count of temporary serializing insts renamed (Count)
system.cpu0.rename.skidInsts                   921634                       # count of insts added to the skid buffer (Count)
system.cpu0.rob.reads                        13587808                       # The number of ROB reads (Count)
system.cpu0.rob.writes                       10370805                       # The number of ROB writes (Count)
system.cpu0.thread_0.numInsts                 2418663                       # Number of Instructions committed (Count)
system.cpu0.thread_0.numOps                   4170248                       # Number of Ops committed (Count)
system.cpu0.thread_0.numMemRefs                     0                       # Number of Memory References (Count)
system.cpu0.workload.numSyscalls                  110                       # Number of system calls (Count)
system.cpu1.numCycles                         9404547                       # Number of cpu cycles simulated (Cycle)
system.cpu1.numWorkItemsStarted                     0                       # Number of work items this cpu started (Count)
system.cpu1.numWorkItemsCompleted                   0                       # Number of work items this cpu completed (Count)
system.cpu1.instsAdded                        4769810                       # Number of instructions added to the IQ (excludes non-spec) (Count)
system.cpu1.nonSpecInstsAdded                     844                       # Number of non-speculative instructions added to the IQ (Count)
system.cpu1.instsIssued                       4408617                       # Number of instructions issued (Count)
system.cpu1.squashedInstsIssued                  1727                       # Number of squashed instructions issued (Count)
system.cpu1.squashedInstsExamined              918123                       # Number of squashed instructions iterated over during squash; mainly for profiling (Count)
system.cpu1.squashedOperandsExamined          2102667                       # Number of squashed operands that are examined and possibly removed from graph (Count)
system.cpu1.squashedNonSpecRemoved                106                       # Number of squashed non-spec instructions that were removed (Count)
system.cpu1.numIssuedDist::samples            8296720                       # Number of insts issued each cycle (Count)
system.cpu1.numIssuedDist::mean              0.531369                       # Number of insts issued each cycle (Count)
system.cpu1.numIssuedDist::stdev             1.478378                       # Number of insts issued each cycle (Count)
system.cpu1.numIssuedDist::underflows               0      0.00%      0.00% # Number of insts issued each cycle (Count)
system.cpu1.numIssuedDist::0                  7066165     85.17%     85.17% # Number of insts issued each cycle (Count)
system.cpu1.numIssuedDist::1                   197870      2.38%     87.55% # Number of insts issued each cycle (Count)
system.cpu1.numIssuedDist::2                   223835      2.70%     90.25% # Number of insts issued each cycle (Count)
system.cpu1.numIssuedDist::3                   240198      2.90%     93.15% # Number of insts issued each cycle (Count)
system.cpu1.numIssuedDist::4                   192904      2.33%     95.47% # Number of insts issued each cycle (Count)
system.cpu1.numIssuedDist::5                   151002      1.82%     97.29% # Number of insts issued each cycle (Count)
system.cpu1.numIssuedDist::6                   103665      1.25%     98.54% # Number of insts issued each cycle (Count)
system.cpu1.numIssuedDist::7                    74781      0.90%     99.44% # Number of insts issued each cycle (Count)
system.cpu1.numIssuedDist::8                    46300      0.56%    100.00% # Number of insts issued each cycle (Count)
system.cpu1.numIssuedDist::overflows                0      0.00%    100.00% # Number of insts issued each cycle (Count)
system.cpu1.numIssuedDist::min_value                0                       # Number of insts issued each cycle (Count)
system.cpu1.numIssuedDist::max_value                8                       # Number of insts issued each cycle (Count)
system.cpu1.numIssuedDist::total              8296720                       # Number of insts issued each cycle (Count)
system.cpu1.statFuBusy::No_OpClass                  0      0.00%      0.00% # attempts to use FU when none available (Count)
system.cpu1.statFuBusy::IntAlu                  45087     65.59%     65.59% # attempts to use FU when none available (Count)
system.cpu1.statFuBusy::IntMult                     0      0.00%     65.59% # attempts to use FU when none available (Count)
system.cpu1.statFuBusy::IntDiv                      0      0.00%     65.59% # attempts to use FU when none available (Count)
system.cpu1.statFuBusy::FloatAdd                    0      0.00%     65.59% # attempts to use FU when none available (Count)
system.cpu1.statFuBusy::FloatCmp                    0      0.00%     65.59% # attempts to use FU when none available (Count)
system.cpu1.statFuBusy::FloatCvt                    0      0.00%     65.59% # attempts to use FU when none available (Count)
system.cpu1.statFuBusy::FloatMult                   0      0.00%     65.59% # attempts to use FU when none available (Count)
system.cpu1.statFuBusy::FloatMultAcc                0      0.00%     65.59% # attempts to use FU when none available (Count)
system.cpu1.statFuBusy::FloatDiv                    0      0.00%     65.59% # attempts to use FU when none available (Count)
system.cpu1.statFuBusy::FloatMisc                   0      0.00%     65.59% # attempts to use FU when none available (Count)
system.cpu1.statFuBusy::FloatSqrt                   0      0.00%     65.59% # attempts to use FU when none available (Count)
system.cpu1.statFuBusy::SimdAdd                     3      0.00%     65.60% # attempts to use FU when none available (Count)
system.cpu1.statFuBusy::SimdAddAcc                  0      0.00%     65.60% # attempts to use FU when none available (Count)
system.cpu1.statFuBusy::SimdAlu                   113      0.16%     65.76% # attempts to use FU when none available (Count)
system.cpu1.statFuBusy::SimdCmp                     0      0.00%     65.76% # attempts to use FU when none available (Count)
system.cpu1.statFuBusy::SimdCvt                   222      0.32%     66.09% # attempts to use FU when none available (Count)
system.cpu1.statFuBusy::SimdMisc                    6      0.01%     66.09% # attempts to use FU when none available (Count)
system.cpu1.statFuBusy::SimdMult                    0      0.00%     66.09% # attempts to use FU when none available (Count)
system.cpu1.statFuBusy::SimdMultAcc                 0      0.00%     66.09% # attempts to use FU when none available (Count)
system.cpu1.statFuBusy::SimdShift                 115      0.17%     66.26% # attempts to use FU when none available (Count)
system.cpu1.statFuBusy::SimdShiftAcc                0      0.00%     66.26% # attempts to use FU when none available (Count)
system.cpu1.statFuBusy::SimdDiv                     0      0.00%     66.26% # attempts to use FU when none available (Count)
system.cpu1.statFuBusy::SimdSqrt                    0      0.00%     66.26% # attempts to use FU when none available (Count)
system.cpu1.statFuBusy::SimdFloatAdd                0      0.00%     66.26% # attempts to use FU when none available (Count)
system.cpu1.statFuBusy::SimdFloatAlu                0      0.00%     66.26% # attempts to use FU when none available (Count)
system.cpu1.statFuBusy::SimdFloatCmp                0      0.00%     66.26% # attempts to use FU when none available (Count)
system.cpu1.statFuBusy::SimdFloatCvt                0      0.00%     66.26% # attempts to use FU when none available (Count)
system.cpu1.statFuBusy::SimdFloatDiv                0      0.00%     66.26% # attempts to use FU when none available (Count)
system.cpu1.statFuBusy::SimdFloatMisc               0      0.00%     66.26% # attempts to use FU when none available (Count)
system.cpu1.statFuBusy::SimdFloatMult               0      0.00%     66.26% # attempts to use FU when none available (Count)
system.cpu1.statFuBusy::SimdFloatMultAcc            0      0.00%     66.26% # attempts to use FU when none available (Count)
system.cpu1.statFuBusy::SimdFloatSqrt               0      0.00%     66.26% # attempts to use FU when none available (Count)
system.cpu1.statFuBusy::SimdReduceAdd               0      0.00%     66.26% # attempts to use FU when none available (Count)
system.cpu1.statFuBusy::SimdReduceAlu               0      0.00%     66.26% # attempts to use FU when none available (Count)
system.cpu1.statFuBusy::SimdReduceCmp               0      0.00%     66.26% # attempts to use FU when none available (Count)
system.cpu1.statFuBusy::SimdFloatReduceAdd            0      0.00%     66.26% # attempts to use FU when none available (Count)
system.cpu1.statFuBusy::SimdFloatReduceCmp            0      0.00%     66.26% # attempts to use FU when none available (Count)
system.cpu1.statFuBusy::SimdAes                     0      0.00%     66.26% # attempts to use FU when none available (Count)
system.cpu1.statFuBusy::SimdAesMix                  0      0.00%     66.26% # attempts to use FU when none available (Count)
system.cpu1.statFuBusy::SimdSha1Hash                0      0.00%     66.26% # attempts to use FU when none available (Count)
system.cpu1.statFuBusy::SimdSha1Hash2               0      0.00%     66.26% # attempts to use FU when none available (Count)
system.cpu1.statFuBusy::SimdSha256Hash              0      0.00%     66.26% # attempts to use FU when none available (Count)
system.cpu1.statFuBusy::SimdSha256Hash2             0      0.00%     66.26% # attempts to use FU when none available (Count)
system.cpu1.statFuBusy::SimdShaSigma2               0      0.00%     66.26% # attempts to use FU when none available (Count)
system.cpu1.statFuBusy::SimdShaSigma3               0      0.00%     66.26% # attempts to use FU when none available (Count)
system.cpu1.statFuBusy::SimdPredAlu                 0      0.00%     66.26% # attempts to use FU when none available (Count)
system.cpu1.statFuBusy::MemRead                 12572     18.29%     84.55% # attempts to use FU when none available (Count)
system.cpu1.statFuBusy::MemWrite                 9828     14.30%     98.85% # attempts to use FU when none available (Count)
system.cpu1.statFuBusy::FloatMemRead              496      0.72%     99.57% # attempts to use FU when none available (Count)
system.cpu1.statFuBusy::FloatMemWrite             295      0.43%    100.00% # attempts to use FU when none available (Count)
system.cpu1.statFuBusy::IprAccess                   0      0.00%    100.00% # attempts to use FU when none available (Count)
system.cpu1.statFuBusy::InstPrefetch                0      0.00%    100.00% # attempts to use FU when none available (Count)
system.cpu1.statIssuedInstType_0::No_OpClass        23995      0.54%      0.54% # Number of instructions issued per FU type, per thread (Count)
system.cpu1.statIssuedInstType_0::IntAlu      3401048     77.15%     77.69% # Number of instructions issued per FU type, per thread (Count)
system.cpu1.statIssuedInstType_0::IntMult          362      0.01%     77.70% # Number of instructions issued per FU type, per thread (Count)
system.cpu1.statIssuedInstType_0::IntDiv        38320      0.87%     78.57% # Number of instructions issued per FU type, per thread (Count)
system.cpu1.statIssuedInstType_0::FloatAdd        10211      0.23%     78.80% # Number of instructions issued per FU type, per thread (Count)
system.cpu1.statIssuedInstType_0::FloatCmp            0      0.00%     78.80% # Number of instructions issued per FU type, per thread (Count)
system.cpu1.statIssuedInstType_0::FloatCvt         1072      0.02%     78.82% # Number of instructions issued per FU type, per thread (Count)
system.cpu1.statIssuedInstType_0::FloatMult            0      0.00%     78.82% # Number of instructions issued per FU type, per thread (Count)
system.cpu1.statIssuedInstType_0::FloatMultAcc            0      0.00%     78.82% # Number of instructions issued per FU type, per thread (Count)
system.cpu1.statIssuedInstType_0::FloatDiv            0      0.00%     78.82% # Number of instructions issued per FU type, per thread (Count)
system.cpu1.statIssuedInstType_0::FloatMisc            0      0.00%     78.82% # Number of instructions issued per FU type, per thread (Count)
system.cpu1.statIssuedInstType_0::FloatSqrt            0      0.00%     78.82% # Number of instructions issued per FU type, per thread (Count)
system.cpu1.statIssuedInstType_0::SimdAdd         6426      0.15%     78.97% # Number of instructions issued per FU type, per thread (Count)
system.cpu1.statIssuedInstType_0::SimdAddAcc            0      0.00%     78.97% # Number of instructions issued per FU type, per thread (Count)
system.cpu1.statIssuedInstType_0::SimdAlu        14601      0.33%     79.30% # Number of instructions issued per FU type, per thread (Count)
system.cpu1.statIssuedInstType_0::SimdCmp           12      0.00%     79.30% # Number of instructions issued per FU type, per thread (Count)
system.cpu1.statIssuedInstType_0::SimdCvt        14109      0.32%     79.62% # Number of instructions issued per FU type, per thread (Count)
system.cpu1.statIssuedInstType_0::SimdMisc        13978      0.32%     79.94% # Number of instructions issued per FU type, per thread (Count)
system.cpu1.statIssuedInstType_0::SimdMult            0      0.00%     79.94% # Number of instructions issued per FU type, per thread (Count)
system.cpu1.statIssuedInstType_0::SimdMultAcc            0      0.00%     79.94% # Number of instructions issued per FU type, per thread (Count)
system.cpu1.statIssuedInstType_0::SimdShift         1751      0.04%     79.98% # Number of instructions issued per FU type, per thread (Count)
system.cpu1.statIssuedInstType_0::SimdShiftAcc            0      0.00%     79.98% # Number of instructions issued per FU type, per thread (Count)
system.cpu1.statIssuedInstType_0::SimdDiv            0      0.00%     79.98% # Number of instructions issued per FU type, per thread (Count)
system.cpu1.statIssuedInstType_0::SimdSqrt            0      0.00%     79.98% # Number of instructions issued per FU type, per thread (Count)
system.cpu1.statIssuedInstType_0::SimdFloatAdd          385      0.01%     79.99% # Number of instructions issued per FU type, per thread (Count)
system.cpu1.statIssuedInstType_0::SimdFloatAlu            0      0.00%     79.99% # Number of instructions issued per FU type, per thread (Count)
system.cpu1.statIssuedInstType_0::SimdFloatCmp            0      0.00%     79.99% # Number of instructions issued per FU type, per thread (Count)
system.cpu1.statIssuedInstType_0::SimdFloatCvt          200      0.00%     79.99% # Number of instructions issued per FU type, per thread (Count)
system.cpu1.statIssuedInstType_0::SimdFloatDiv            0      0.00%     79.99% # Number of instructions issued per FU type, per thread (Count)
system.cpu1.statIssuedInstType_0::SimdFloatMisc            0      0.00%     79.99% # Number of instructions issued per FU type, per thread (Count)
system.cpu1.statIssuedInstType_0::SimdFloatMult          201      0.00%     79.99% # Number of instructions issued per FU type, per thread (Count)
system.cpu1.statIssuedInstType_0::SimdFloatMultAcc            0      0.00%     79.99% # Number of instructions issued per FU type, per thread (Count)
system.cpu1.statIssuedInstType_0::SimdFloatSqrt            0      0.00%     79.99% # Number of instructions issued per FU type, per thread (Count)
system.cpu1.statIssuedInstType_0::SimdReduceAdd            0      0.00%     79.99% # Number of instructions issued per FU type, per thread (Count)
system.cpu1.statIssuedInstType_0::SimdReduceAlu            0      0.00%     79.99% # Number of instructions issued per FU type, per thread (Count)
system.cpu1.statIssuedInstType_0::SimdReduceCmp            0      0.00%     79.99% # Number of instructions issued per FU type, per thread (Count)
system.cpu1.statIssuedInstType_0::SimdFloatReduceAdd            0      0.00%     79.99% # Number of instructions issued per FU type, per thread (Count)
system.cpu1.statIssuedInstType_0::SimdFloatReduceCmp            0      0.00%     79.99% # Number of instructions issued per FU type, per thread (Count)
system.cpu1.statIssuedInstType_0::SimdAes            0      0.00%     79.99% # Number of instructions issued per FU type, per thread (Count)
system.cpu1.statIssuedInstType_0::SimdAesMix            0      0.00%     79.99% # Number of instructions issued per FU type, per thread (Count)
system.cpu1.statIssuedInstType_0::SimdSha1Hash            0      0.00%     79.99% # Number of instructions issued per FU type, per thread (Count)
system.cpu1.statIssuedInstType_0::SimdSha1Hash2            0      0.00%     79.99% # Number of instructions issued per FU type, per thread (Count)
system.cpu1.statIssuedInstType_0::SimdSha256Hash            0      0.00%     79.99% # Number of instructions issued per FU type, per thread (Count)
system.cpu1.statIssuedInstType_0::SimdSha256Hash2            0      0.00%     79.99% # Number of instructions issued per FU type, per thread (Count)
system.cpu1.statIssuedInstType_0::SimdShaSigma2            0      0.00%     79.99% # Number of instructions issued per FU type, per thread (Count)
system.cpu1.statIssuedInstType_0::SimdShaSigma3            0      0.00%     79.99% # Number of instructions issued per FU type, per thread (Count)
system.cpu1.statIssuedInstType_0::SimdPredAlu            0      0.00%     79.99% # Number of instructions issued per FU type, per thread (Count)
system.cpu1.statIssuedInstType_0::MemRead       608293     13.80%     93.79% # Number of instructions issued per FU type, per thread (Count)
system.cpu1.statIssuedInstType_0::MemWrite       235690      5.35%     99.14% # Number of instructions issued per FU type, per thread (Count)
system.cpu1.statIssuedInstType_0::FloatMemRead        22091      0.50%     99.64% # Number of instructions issued per FU type, per thread (Count)
system.cpu1.statIssuedInstType_0::FloatMemWrite        15872      0.36%    100.00% # Number of instructions issued per FU type, per thread (Count)
system.cpu1.statIssuedInstType_0::IprAccess            0      0.00%    100.00% # Number of instructions issued per FU type, per thread (Count)
system.cpu1.statIssuedInstType_0::InstPrefetch            0      0.00%    100.00% # Number of instructions issued per FU type, per thread (Count)
system.cpu1.statIssuedInstType_0::total       4408617                       # Number of instructions issued per FU type, per thread (Count)
system.cpu1.issueRate                        0.468775                       # Inst issue rate ((Count/Cycle))
system.cpu1.fuBusy                              68737                       # FU busy when requested (Count)
system.cpu1.fuBusyRate                       0.015592                       # FU busy rate (busy events/executed inst) ((Count/Count))
system.cpu1.intInstQueueReads                16973809                       # Number of integer instruction queue reads (Count)
system.cpu1.intInstQueueWrites                5544611                       # Number of integer instruction queue writes (Count)
system.cpu1.intInstQueueWakeupAccesses        4264065                       # Number of integer instruction queue wakeup accesses (Count)
system.cpu1.fpInstQueueReads                   210609                       # Number of floating instruction queue reads (Count)
system.cpu1.fpInstQueueWrites                  144369                       # Number of floating instruction queue writes (Count)
system.cpu1.fpInstQueueWakeupAccesses          101406                       # Number of floating instruction queue wakeup accesses (Count)
system.cpu1.vecInstQueueReads                       0                       # Number of vector instruction queue reads (Count)
system.cpu1.vecInstQueueWrites                      0                       # Number of vector instruction queue writes (Count)
system.cpu1.vecInstQueueWakeupAccesses              0                       # Number of vector instruction queue wakeup accesses (Count)
system.cpu1.intAluAccesses                    4347536                       # Number of integer alu accesses (Count)
system.cpu1.fpAluAccesses                      105823                       # Number of floating point alu accesses (Count)
system.cpu1.vecAluAccesses                          0                       # Number of vector alu accesses (Count)
system.cpu1.numInsts                          4386213                       # Number of executed instructions (Count)
system.cpu1.numLoadInsts                       625742                       # Number of load instructions executed (Count)
system.cpu1.numSquashedInsts                    22404                       # Number of squashed instructions skipped in execute (Count)
system.cpu1.numSwp                                  0                       # Number of swp insts executed (Count)
system.cpu1.numNop                                  0                       # Number of nop insts executed (Count)
system.cpu1.numRefs                            875211                       # Number of memory reference insts executed (Count)
system.cpu1.numBranches                        373025                       # Number of branches executed (Count)
[...]
system.ruby.network.ext_out_link_utilization      7564277                       (Unspecified)
system.ruby.network.flit_network_latency |241312925500                       |318761700000                       | 40938304500                       (Unspecified)
system.ruby.network.flit_queueing_latency |  4409866500                       |  3566241500                       |   279279000                       (Unspecified)
system.ruby.network.flits_injected       |     2401769     31.75%     31.75% |     4603966     60.86%     92.62% |      558560      7.38%    100.00% (Unspecified)
system.ruby.network.flits_injected::total      7564295                       (Unspecified)
system.ruby.network.flits_received       |     2401759     31.75%     31.75% |     4603959     60.86%     92.62% |      558558      7.38%    100.00% (Unspecified)
system.ruby.network.flits_received::total      7564276                       (Unspecified)
system.ruby.network.int_link_utilization     18698024                       (Unspecified)
system.ruby.network.packet_network_latency |125441437500                       |110175064500                       | 40938304500                       (Unspecified)
system.ruby.network.packet_queueing_latency |  2804071500                       |   944549500                       |   279279000                       (Unspecified)
system.ruby.network.packets_injected     |     1360781     41.48%     41.48% |     1360958     41.49%     82.97% |      558560     17.03%    100.00% (Unspecified)
system.ruby.network.packets_injected::total      3280299                       (Unspecified)
system.ruby.network.packets_received     |     1360778     41.48%     41.48% |     1360955     41.49%     82.97% |      558558     17.03%    100.00% (Unspecified)
system.ruby.network.packets_received::total      3280291                       (Unspecified)
system.ruby.network.routers00.Var_1                 1                       (Unspecified)
system.ruby.network.routers00.Var_2              2739                       (Unspecified)
system.ruby.network.routers00.Var_3              6675                       (Unspecified)
system.ruby.network.routers00.all_counts        54727                       (Unspecified)
system.ruby.network.routers00.buffer_reads      1021733                       (Unspecified)
system.ruby.network.routers00.buffer_writes      1021733                       (Unspecified)
system.ruby.network.routers00.crossbar_activity      1021733                       (Unspecified)
system.ruby.network.routers00.detour_counts         6711                       (Unspecified)
system.ruby.network.routers00.regular_var            0                       (Unspecified)
system.ruby.network.routers00.risk_counts         6712                       (Unspecified)
system.ruby.network.routers00.sw_input_arbiter_activity      1026312                       (Unspecified)
system.ruby.network.routers00.sw_output_arbiter_activity      1021733                       (Unspecified)
system.ruby.network.routers01.Var_1                 1                       (Unspecified)
system.ruby.network.routers01.Var_2              2728                       (Unspecified)
system.ruby.network.routers01.Var_3              9355                       (Unspecified)
system.ruby.network.routers01.all_counts        53204                       (Unspecified)
system.ruby.network.routers01.buffer_reads      1526491                       (Unspecified)
system.ruby.network.routers01.buffer_writes      1526491                       (Unspecified)
system.ruby.network.routers01.crossbar_activity      1526491                       (Unspecified)
system.ruby.network.routers01.detour_counts         9412                       (Unspecified)
system.ruby.network.routers01.regular_var            0                       (Unspecified)
system.ruby.network.routers01.risk_counts         9414                       (Unspecified)
system.ruby.network.routers01.sw_input_arbiter_activity      1541871                       (Unspecified)
system.ruby.network.routers01.sw_output_arbiter_activity      1526491                       (Unspecified)
system.ruby.network.routers02.Var_1                 4                       (Unspecified)
system.ruby.network.routers02.Var_2              2787                       (Unspecified)
system.ruby.network.routers02.Var_3              9679                       (Unspecified)
system.ruby.network.routers02.all_counts        53210                       (Unspecified)
system.ruby.network.routers02.buffer_reads      1643403                       (Unspecified)
system.ruby.network.routers02.buffer_writes      1643403                       (Unspecified)
system.ruby.network.routers02.crossbar_activity      1643403                       (Unspecified)
system.ruby.network.routers02.detour_counts         9732                       (Unspecified)
system.ruby.network.routers02.regular_var            0                       (Unspecified)
system.ruby.network.routers02.risk_counts         9732                       (Unspecified)
system.ruby.network.routers02.sw_input_arbiter_activity      1653970                       (Unspecified)
system.ruby.network.routers02.sw_output_arbiter_activity      1643403                       (Unspecified)
system.ruby.network.routers03.Var_1                 1                       (Unspecified)
system.ruby.network.routers03.Var_2              2813                       (Unspecified)
system.ruby.network.routers03.Var_3              7002                       (Unspecified)
system.ruby.network.routers03.all_counts        54706                       (Unspecified)
system.ruby.network.routers03.buffer_reads      1054411                       (Unspecified)
system.ruby.network.routers03.buffer_writes      1054411                       (Unspecified)
system.ruby.network.routers03.crossbar_activity      1054411                       (Unspecified)
system.ruby.network.routers03.detour_counts         7033                       (Unspecified)
system.ruby.network.routers03.regular_var            0                       (Unspecified)
system.ruby.network.routers03.risk_counts         7034                       (Unspecified)
system.ruby.network.routers03.sw_input_arbiter_activity      1059084                       (Unspecified)
system.ruby.network.routers03.sw_output_arbiter_activity      1054411                       (Unspecified)
system.ruby.network.routers04.Var_1                 4                       (Unspecified)
system.ruby.network.routers04.Var_2              2764                       (Unspecified)
system.ruby.network.routers04.Var_3             10126                       (Unspecified)
system.ruby.network.routers04.all_counts        53206                       (Unspecified)
system.ruby.network.routers04.buffer_reads      1337082                       (Unspecified)
system.ruby.network.routers04.buffer_writes      1337082                       (Unspecified)
system.ruby.network.routers04.crossbar_activity      1337082                       (Unspecified)
system.ruby.network.routers04.detour_counts        10164                       (Unspecified)
system.ruby.network.routers04.regular_var            0                       (Unspecified)
system.ruby.network.routers04.risk_counts        10167                       (Unspecified)
system.ruby.network.routers04.sw_input_arbiter_activity      1346158                       (Unspecified)
system.ruby.network.routers04.sw_output_arbiter_activity      1337082                       (Unspecified)
system.ruby.network.routers05.Var_1               177                       (Unspecified)
system.ruby.network.routers05.Var_2             15678                       (Unspecified)
system.ruby.network.routers05.Var_3             53219                       (Unspecified)
system.ruby.network.routers05.all_counts       227255                       (Unspecified)
system.ruby.network.routers05.buffer_reads      2667118                       (Unspecified)
system.ruby.network.routers05.buffer_writes      2667118                       (Unspecified)
system.ruby.network.routers05.crossbar_activity      2667118                       (Unspecified)
system.ruby.network.routers05.detour_counts        53664                       (Unspecified)
system.ruby.network.routers05.regular_var            0                       (Unspecified)
system.ruby.network.routers05.risk_counts        53671                       (Unspecified)
system.ruby.network.routers05.sw_input_arbiter_activity      2685645                       (Unspecified)
system.ruby.network.routers05.sw_output_arbiter_activity      2667118                       (Unspecified)
system.ruby.network.routers06.Var_1                94                       (Unspecified)
system.ruby.network.routers06.Var_2             15166                       (Unspecified)
system.ruby.network.routers06.Var_3             60560                       (Unspecified)
system.ruby.network.routers06.all_counts       227474                       (Unspecified)
system.ruby.network.routers06.buffer_reads      2849315                       (Unspecified)
system.ruby.network.routers06.buffer_writes      2849315                       (Unspecified)
system.ruby.network.routers06.crossbar_activity      2849315                       (Unspecified)
system.ruby.network.routers06.detour_counts        60923                       (Unspecified)
system.ruby.network.routers06.regular_var            0                       (Unspecified)
system.ruby.network.routers06.risk_counts        60925                       (Unspecified)
system.ruby.network.routers06.sw_input_arbiter_activity      2868006                       (Unspecified)
system.ruby.network.routers06.sw_output_arbiter_activity      2849315                       (Unspecified)
system.ruby.network.routers07.Var_1                22                       (Unspecified)
system.ruby.network.routers07.Var_2             14883                       (Unspecified)
system.ruby.network.routers07.Var_3             47708                       (Unspecified)
system.ruby.network.routers07.all_counts       220841                       (Unspecified)
system.ruby.network.routers07.buffer_reads      1983545                       (Unspecified)
system.ruby.network.routers07.buffer_writes      1983545                       (Unspecified)
system.ruby.network.routers07.crossbar_activity      1983545                       (Unspecified)
system.ruby.network.routers07.detour_counts        47929                       (Unspecified)
system.ruby.network.routers07.regular_var            1                       (Unspecified)
system.ruby.network.routers07.risk_counts        47934                       (Unspecified)
system.ruby.network.routers07.sw_input_arbiter_activity      1993847                       (Unspecified)
system.ruby.network.routers07.sw_output_arbiter_activity      1983545                       (Unspecified)
system.ruby.network.routers08.Var_1                 1                       (Unspecified)
system.ruby.network.routers08.Var_2              2779                       (Unspecified)
system.ruby.network.routers08.Var_3             10303                       (Unspecified)
system.ruby.network.routers08.all_counts        54712                       (Unspecified)
system.ruby.network.routers08.buffer_reads      1239192                       (Unspecified)
system.ruby.network.routers08.buffer_writes      1239192                       (Unspecified)
system.ruby.network.routers08.crossbar_activity      1239192                       (Unspecified)
system.ruby.network.routers08.detour_counts        10326                       (Unspecified)
system.ruby.network.routers08.regular_var            0                       (Unspecified)
system.ruby.network.routers08.risk_counts        10326                       (Unspecified)
system.ruby.network.routers08.sw_input_arbiter_activity      1248636                       (Unspecified)
system.ruby.network.routers08.sw_output_arbiter_activity      1239192                       (Unspecified)
system.ruby.network.routers09.Var_1                68                       (Unspecified)
system.ruby.network.routers09.Var_2             15460                       (Unspecified)
system.ruby.network.routers09.Var_3             54845                       (Unspecified)
system.ruby.network.routers09.all_counts       225210                       (Unspecified)
system.ruby.network.routers09.buffer_reads      2433931                       (Unspecified)
system.ruby.network.routers09.buffer_writes      2433931                       (Unspecified)
system.ruby.network.routers09.crossbar_activity      2433931                       (Unspecified)
system.ruby.network.routers09.detour_counts        55203                       (Unspecified)
system.ruby.network.routers09.regular_var            0                       (Unspecified)
system.ruby.network.routers09.risk_counts        55208                       (Unspecified)
system.ruby.network.routers09.sw_input_arbiter_activity      2451291                       (Unspecified)
system.ruby.network.routers09.sw_output_arbiter_activity      2433931                       (Unspecified)
system.ruby.network.routers10.Var_1                17                       (Unspecified)
system.ruby.network.routers10.Var_2             14285                       (Unspecified)
system.ruby.network.routers10.Var_3             59013                       (Unspecified)
system.ruby.network.routers10.all_counts       226940                       (Unspecified)
system.ruby.network.routers10.buffer_reads      2509298                       (Unspecified)
system.ruby.network.routers10.buffer_writes      2509298                       (Unspecified)
system.ruby.network.routers10.crossbar_activity      2509298                       (Unspecified)
system.ruby.network.routers10.detour_counts        59378                       (Unspecified)
system.ruby.network.routers10.regular_var            1                       (Unspecified)
system.ruby.network.routers10.risk_counts        59382                       (Unspecified)
system.ruby.network.routers10.sw_input_arbiter_activity      2526989                       (Unspecified)
system.ruby.network.routers10.sw_output_arbiter_activity      2509298                       (Unspecified)
system.ruby.network.routers11.Var_1                 2                       (Unspecified)
system.ruby.network.routers11.Var_2              2768                       (Unspecified)
system.ruby.network.routers11.Var_3             10307                       (Unspecified)
system.ruby.network.routers11.all_counts        54683                       (Unspecified)
system.ruby.network.routers11.buffer_reads      1458300                       (Unspecified)
system.ruby.network.routers11.buffer_writes      1458300                       (Unspecified)
system.ruby.network.routers11.crossbar_activity      1458300                       (Unspecified)
system.ruby.network.routers11.detour_counts        10343                       (Unspecified)
system.ruby.network.routers11.regular_var            0                       (Unspecified)
system.ruby.network.routers11.risk_counts        10343                       (Unspecified)
system.ruby.network.routers11.sw_input_arbiter_activity      1468206                       (Unspecified)
system.ruby.network.routers11.sw_output_arbiter_activity      1458300                       (Unspecified)
system.ruby.network.routers12.Var_1                 2                       (Unspecified)
system.ruby.network.routers12.Var_2              2748                       (Unspecified)
system.ruby.network.routers12.Var_3              6617                       (Unspecified)
system.ruby.network.routers12.all_counts        53215                       (Unspecified)
system.ruby.network.routers12.buffer_reads       796905                       (Unspecified)
system.ruby.network.routers12.buffer_writes       796905                       (Unspecified)
system.ruby.network.routers12.crossbar_activity       796905                       (Unspecified)
system.ruby.network.routers12.detour_counts         6671                       (Unspecified)
system.ruby.network.routers12.regular_var            0                       (Unspecified)
system.ruby.network.routers12.risk_counts         6671                       (Unspecified)
system.ruby.network.routers12.sw_input_arbiter_activity       801213                       (Unspecified)
system.ruby.network.routers12.sw_output_arbiter_activity       796905                       (Unspecified)
system.ruby.network.routers13.Var_1                 5                       (Unspecified)
system.ruby.network.routers13.Var_2              2745                       (Unspecified)
system.ruby.network.routers13.Var_3              9597                       (Unspecified)
system.ruby.network.routers13.all_counts        54691                       (Unspecified)
system.ruby.network.routers13.buffer_reads      1355519                       (Unspecified)
system.ruby.network.routers13.buffer_writes      1355519                       (Unspecified)
system.ruby.network.routers13.crossbar_activity      1355519                       (Unspecified)
system.ruby.network.routers13.detour_counts         9662                       (Unspecified)
system.ruby.network.routers13.regular_var            0                       (Unspecified)
system.ruby.network.routers13.risk_counts         9662                       (Unspecified)
system.ruby.network.routers13.sw_input_arbiter_activity      1365631                       (Unspecified)
system.ruby.network.routers13.sw_output_arbiter_activity      1355519                       (Unspecified)
system.ruby.network.routers14.Var_1                 6                       (Unspecified)
system.ruby.network.routers14.Var_2              2780                       (Unspecified)
system.ruby.network.routers14.Var_3              9519                       (Unspecified)
system.ruby.network.routers14.all_counts        53235                       (Unspecified)
system.ruby.network.routers14.buffer_reads      1405955                       (Unspecified)
system.ruby.network.routers14.buffer_writes      1405955                       (Unspecified)
system.ruby.network.routers14.crossbar_activity      1405955                       (Unspecified)
system.ruby.network.routers14.detour_counts         9588                       (Unspecified)
system.ruby.network.routers14.regular_var            0                       (Unspecified)
system.ruby.network.routers14.risk_counts         9588                       (Unspecified)
system.ruby.network.routers14.sw_input_arbiter_activity      1415937                       (Unspecified)
system.ruby.network.routers14.sw_output_arbiter_activity      1405955                       (Unspecified)
system.ruby.network.routers15.Var_1                 1                       (Unspecified)
system.ruby.network.routers15.Var_2              2799                       (Unspecified)
system.ruby.network.routers15.Var_3              6928                       (Unspecified)
system.ruby.network.routers15.all_counts        54722                       (Unspecified)
system.ruby.network.routers15.buffer_reads       980103                       (Unspecified)
system.ruby.network.routers15.buffer_writes       980103                       (Unspecified)
system.ruby.network.routers15.crossbar_activity       980103                       (Unspecified)
system.ruby.network.routers15.detour_counts         6971                       (Unspecified)
system.ruby.network.routers15.regular_var            0                       (Unspecified)
system.ruby.network.routers15.risk_counts         6971                       (Unspecified)
system.ruby.network.routers15.sw_input_arbiter_activity       984368                       (Unspecified)
system.ruby.network.routers15.sw_output_arbiter_activity       980103                       (Unspecified)

---------- End Simulation Statistics   ----------
