
---------- Begin Simulation Statistics ----------
simSeconds                                   0.032497                       # Number of seconds simulated (Second)
simTicks                                  32496687500                       # Number of ticks simulated (Tick)
finalTick                                 32496687500                       # Number of ticks from beginning of simulation (restored from checkpoints and never reset) (Tick)
simFreq                                  1000000000000                       # The number of ticks per simulated second ((Tick/Second))
hostSeconds                                   3015.18                       # Real time elapsed on the host (Second)
hostTickRate                                 10777707                       # The number of ticks simulated per host second (ticks/s) ((Tick/Second))
hostMemory                                   40107352                       # Number of bytes of host memory used (Byte)
simInsts                                    613392984                       # Number of instructions simulated (Count)
simOps                                      956584177                       # Number of ops (including micro ops) simulated (Count)
hostInstRate                                   203435                       # Simulator instruction rate (inst/s) ((Count/Second))
hostOpRate                                     317256                       # Simulator op (including micro ops) rate (op/s) ((Count/Second))
system.clk_domain.clock                          1000                       # Clock period in ticks (Tick)
system.cpu0.numCycles                        10113745                       # Number of cpu cycles simulated (Cycle)
system.cpu0.numWorkItemsStarted                     0                       # Number of work items this cpu started (Count)
system.cpu0.numWorkItemsCompleted                   0                       # Number of work items this cpu completed (Count)
system.cpu0.instsAdded                        5123179                       # Number of instructions added to the IQ (excludes non-spec) (Count)
system.cpu0.nonSpecInstsAdded                    1591                       # Number of non-speculative instructions added to the IQ (Count)
system.cpu0.instsIssued                       4751266                       # Number of instructions issued (Count)
system.cpu0.squashedInstsIssued                  1785                       # Number of squashed instructions issued (Count)
system.cpu0.squashedInstsExamined              954522                       # Number of squashed instructions iterated over during squash; mainly for profiling (Count)
system.cpu0.squashedOperandsExamined          2162030                       # Number of squashed operands that are examined and possibly removed from graph (Count)
system.cpu0.squashedNonSpecRemoved                361                       # Number of squashed non-spec instructions that were removed (Count)
system.cpu0.numIssuedDist::samples            8756518                       # Number of insts issued each cycle (Count)
system.cpu0.numIssuedDist::mean              0.542598                       # Number of insts issued each cycle (Count)
system.cpu0.numIssuedDist::stdev             1.496999                       # Number of insts issued each cycle (Count)
system.cpu0.numIssuedDist::underflows               0      0.00%      0.00% # Number of insts issued each cycle (Count)
system.cpu0.numIssuedDist::0                  7440178     84.97%     84.97% # Number of insts issued each cycle (Count)
system.cpu0.numIssuedDist::1                   211162      2.41%     87.38% # Number of insts issued each cycle (Count)
system.cpu0.numIssuedDist::2                   234340      2.68%     90.05% # Number of insts issued each cycle (Count)
system.cpu0.numIssuedDist::3                   252634      2.89%     92.94% # Number of insts issued each cycle (Count)
system.cpu0.numIssuedDist::4                   206563      2.36%     95.30% # Number of insts issued each cycle (Count)
system.cpu0.numIssuedDist::5                   163887      1.87%     97.17% # Number of insts issued each cycle (Count)
system.cpu0.numIssuedDist::6                   116860      1.33%     98.51% # Number of insts issued each cycle (Count)
system.cpu0.numIssuedDist::7                    80477      0.92%     99.42% # Number of insts issued each cycle (Count)
system.cpu0.numIssuedDist::8                    50417      0.58%    100.00% # Number of insts issued each cycle (Count)
system.cpu0.numIssuedDist::overflows                0      0.00%    100.00% # Number of insts issued each cycle (Count)
system.cpu0.numIssuedDist::min_value                0                       # Number of insts issued each cycle (Count)
system.cpu0.numIssuedDist::max_value                8                       # Number of insts issued each cycle (Count)
system.cpu0.numIssuedDist::total              8756518                       # Number of insts issued each cycle (Count)
system.cpu0.statFuBusy::No_OpClass                  0      0.00%      0.00% # attempts to use FU when none available (Count)
system.cpu0.statFuBusy::IntAlu                  48790     66.67%     66.67% # attempts to use FU when none available (Count)
system.cpu0.statFuBusy::IntMult                     0      0.00%     66.67% # attempts to use FU when none available (Count)
system.cpu0.statFuBusy::IntDiv                      0      0.00%     66.67% # attempts to use FU when none available (Count)
system.cpu0.statFuBusy::FloatAdd                    0      0.00%     66.67% # attempts to use FU when none available (Count)
system.cpu0.statFuBusy::FloatCmp                    0      0.00%     66.67% # attempts to use FU when none available (Count)
system.cpu0.statFuBusy::FloatCvt                    0      0.00%     66.67% # attempts to use FU when none available (Count)
system.cpu0.statFuBusy::FloatMult                   0      0.00%     66.67% # attempts to use FU when none available (Count)
system.cpu0.statFuBusy::FloatMultAcc                0      0.00%     66.67% # attempts to use FU when none available (Count)
system.cpu0.statFuBusy::FloatDiv                    0      0.00%     66.67% # attempts to use FU when none available (Count)
system.cpu0.statFuBusy::FloatMisc                   0      0.00%     66.67% # attempts to use FU when none available (Count)
system.cpu0.statFuBusy::FloatSqrt                   0      0.00%     66.67% # attempts to use FU when none available (Count)
system.cpu0.statFuBusy::SimdAdd                     3      0.00%     66.68% # attempts to use FU when none available (Count)
system.cpu0.statFuBusy::SimdAddAcc                  0      0.00%     66.68% # attempts to use FU when none available (Count)
system.cpu0.statFuBusy::SimdAlu                   179      0.24%     66.92% # attempts to use FU when none available (Count)
system.cpu0.statFuBusy::SimdCmp                     0      0.00%     66.92% # attempts to use FU when none available (Count)
system.cpu0.statFuBusy::SimdCvt                   251      0.34%     67.27% # attempts to use FU when none available (Count)
system.cpu0.statFuBusy::SimdMisc                    6      0.01%     67.27% # attempts to use FU when none available (Count)
system.cpu0.statFuBusy::SimdMult                    0      0.00%     67.27% # attempts to use FU when none available (Count)
system.cpu0.statFuBusy::SimdMultAcc                 0      0.00%     67.27% # attempts to use FU when none available (Count)
system.cpu0.statFuBusy::SimdShift                 116      0.16%     67.43% # attempts to use FU when none available (Count)
system.cpu0.statFuBusy::SimdShiftAcc                0      0.00%     67.43% # attempts to use FU when none available (Count)
system.cpu0.statFuBusy::SimdDiv                     0      0.00%     67.43% # attempts to use FU when none available (Count)
system.cpu0.statFuBusy::SimdSqrt                    0      0.00%     67.43% # attempts to use FU when none available (Count)
system.cpu0.statFuBusy::SimdFloatAdd                0      0.00%     67.43% # attempts to use FU when none available (Count)
system.cpu0.statFuBusy::SimdFloatAlu                0      0.00%     67.43% # attempts to use FU when none available (Count)
system.cpu0.statFuBusy::SimdFloatCmp                0      0.00%     67.43% # attempts to use FU when none available (Count)
system.cpu0.statFuBusy::SimdFloatCvt                0      0.00%     67.43% # attempts to use FU when none available (Count)
system.cpu0.statFuBusy::SimdFloatDiv                0      0.00%     67.43% # attempts to use FU when none available (Count)
system.cpu0.statFuBusy::SimdFloatMisc               0      0.00%     67.43% # attempts to use FU when none available (Count)
system.cpu0.statFuBusy::SimdFloatMult               0      0.00%     67.43% # attempts to use FU when none available (Count)
system.cpu0.statFuBusy::SimdFloatMultAcc            0      0.00%     67.43% # attempts to use FU when none available (Count)
system.cpu0.statFuBusy::SimdFloatSqrt               0      0.00%     67.43% # attempts to use FU when none available (Count)
system.cpu0.statFuBusy::SimdReduceAdd               0      0.00%     67.43% # attempts to use FU when none available (Count)
system.cpu0.statFuBusy::SimdReduceAlu               0      0.00%     67.43% # attempts to use FU when none available (Count)
system.cpu0.statFuBusy::SimdReduceCmp               0      0.00%     67.43% # attempts to use FU when none available (Count)
system.cpu0.statFuBusy::SimdFloatReduceAdd            0      0.00%     67.43% # attempts to use FU when none available (Count)
system.cpu0.statFuBusy::SimdFloatReduceCmp            0      0.00%     67.43% # attempts to use FU when none available (Count)
system.cpu0.statFuBusy::SimdAes                     0      0.00%     67.43% # attempts to use FU when none available (Count)
system.cpu0.statFuBusy::SimdAesMix                  0      0.00%     67.43% # attempts to use FU when none available (Count)
system.cpu0.statFuBusy::SimdSha1Hash                0      0.00%     67.43% # attempts to use FU when none available (Count)
system.cpu0.statFuBusy::SimdSha1Hash2               0      0.00%     67.43% # attempts to use FU when none available (Count)
system.cpu0.statFuBusy::SimdSha256Hash              0      0.00%     67.43% # attempts to use FU when none available (Count)
system.cpu0.statFuBusy::SimdSha256Hash2             0      0.00%     67.43% # attempts to use FU when none available (Count)
system.cpu0.statFuBusy::SimdShaSigma2               0      0.00%     67.43% # attempts to use FU when none available (Count)
system.cpu0.statFuBusy::SimdShaSigma3               0      0.00%     67.43% # attempts to use FU when none available (Count)
system.cpu0.statFuBusy::SimdPredAlu                 0      0.00%     67.43% # attempts to use FU when none available (Count)
system.cpu0.statFuBusy::MemRead                 12895     17.62%     85.05% # attempts to use FU when none available (Count)
system.cpu0.statFuBusy::MemWrite                10105     13.81%     98.86% # attempts to use FU when none available (Count)
system.cpu0.statFuBusy::FloatMemRead              533      0.73%     99.59% # attempts to use FU when none available (Count)
system.cpu0.statFuBusy::FloatMemWrite             299      0.41%    100.00% # attempts to use FU when none available (Count)
system.cpu0.statFuBusy::IprAccess                   0      0.00%    100.00% # attempts to use FU when none available (Count)
system.cpu0.statFuBusy::InstPrefetch                0      0.00%    100.00% # attempts to use FU when none available (Count)
system.cpu0.statIssuedInstType_0::No_OpClass        29096      0.61%      0.61% # Number of instructions issued per FU type, per thread (Count)
system.cpu0.statIssuedInstType_0::IntAlu      3665518     77.15%     77.76% # Number of instructions issued per FU type, per thread (Count)
system.cpu0.statIssuedInstType_0::IntMult         1186      0.02%     77.79% # Number of instructions issued per FU type, per thread (Count)
system.cpu0.statIssuedInstType_0::IntDiv        38505      0.81%     78.60% # Number of instructions issued per FU type, per thread (Count)
system.cpu0.statIssuedInstType_0::FloatAdd        10809      0.23%     78.82% # Number of instructions issued per FU type, per thread (Count)
system.cpu0.statIssuedInstType_0::FloatCmp            0      0.00%     78.82% # Number of instructions issued per FU type, per thread (Count)
system.cpu0.statIssuedInstType_0::FloatCvt         1240      0.03%     78.85% # Number of instructions issued per FU type, per thread (Count)
system.cpu0.statIssuedInstType_0::FloatMult            0      0.00%     78.85% # Number of instructions issued per FU type, per thread (Count)
system.cpu0.statIssuedInstType_0::FloatMultAcc            0      0.00%     78.85% # Number of instructions issued per FU type, per thread (Count)
system.cpu0.statIssuedInstType_0::FloatDiv            0      0.00%     78.85% # Number of instructions issued per FU type, per thread (Count)
system.cpu0.statIssuedInstType_0::FloatMisc            0      0.00%     78.85% # Number of instructions issued per FU type, per thread (Count)
system.cpu0.statIssuedInstType_0::FloatSqrt            0      0.00%     78.85% # Number of instructions issued per FU type, per thread (Count)
system.cpu0.statIssuedInstType_0::SimdAdd         6430      0.14%     78.98% # Number of instructions issued per FU type, per thread (Count)
system.cpu0.statIssuedInstType_0::SimdAddAcc            0      0.00%     78.98% # Number of instructions issued per FU type, per thread (Count)
system.cpu0.statIssuedInstType_0::SimdAlu        16017      0.34%     79.32% # Number of instructions issued per FU type, per thread (Count)
system.cpu0.statIssuedInstType_0::SimdCmp           12      0.00%     79.32% # Number of instructions issued per FU type, per thread (Count)
system.cpu0.statIssuedInstType_0::SimdCvt        15149      0.32%     79.64% # Number of instructions issued per FU type, per thread (Count)
system.cpu0.statIssuedInstType_0::SimdMisc        15833      0.33%     79.97% # Number of instructions issued per FU type, per thread (Count)
system.cpu0.statIssuedInstType_0::SimdMult            0      0.00%     79.97% # Number of instructions issued per FU type, per thread (Count)
system.cpu0.statIssuedInstType_0::SimdMultAcc            0      0.00%     79.97% # Number of instructions issued per FU type, per thread (Count)
system.cpu0.statIssuedInstType_0::SimdShift         1729      0.04%     80.01% # Number of instructions issued per FU type, per thread (Count)
system.cpu0.statIssuedInstType_0::SimdShiftAcc            0      0.00%     80.01% # Number of instructions issued per FU type, per thread (Count)
system.cpu0.statIssuedInstType_0::SimdDiv            0      0.00%     80.01% # Number of instructions issued per FU type, per thread (Count)
system.cpu0.statIssuedInstType_0::SimdSqrt            0      0.00%     80.01% # Number of instructions issued per FU type, per thread (Count)
system.cpu0.statIssuedInstType_0::SimdFloatAdd          385      0.01%     80.02% # Number of instructions issued per FU type, per thread (Count)
system.cpu0.statIssuedInstType_0::SimdFloatAlu            0      0.00%     80.02% # Number of instructions issued per FU type, per thread (Count)
system.cpu0.statIssuedInstType_0::SimdFloatCmp            0      0.00%     80.02% # Number of instructions issued per FU type, per thread (Count)
system.cpu0.statIssuedInstType_0::SimdFloatCvt          328      0.01%     80.03% # Number of instructions issued per FU type, per thread (Count)
system.cpu0.statIssuedInstType_0::SimdFloatDiv            0      0.00%     80.03% # Number of instructions issued per FU type, per thread (Count)
system.cpu0.statIssuedInstType_0::SimdFloatMisc            0      0.00%     80.03% # Number of instructions issued per FU type, per thread (Count)
system.cpu0.statIssuedInstType_0::SimdFloatMult          201      0.00%     80.03% # Number of instructions issued per FU type, per thread (Count)
system.cpu0.statIssuedInstType_0::SimdFloatMultAcc            0      0.00%     80.03% # Number of instructions issued per FU type, per thread (Count)
system.cpu0.statIssuedInstType_0::SimdFloatSqrt            0      0.00%     80.03% # Number of instructions issued per FU type, per thread (Count)
system.cpu0.statIssuedInstType_0::SimdReduceAdd            0      0.00%     80.03% # Number of instructions issued per FU type, per thread (Count)
system.cpu0.statIssuedInstType_0::SimdReduceAlu            0      0.00%     80.03% # Number of instructions issued per FU type, per thread (Count)
system.cpu0.statIssuedInstType_0::SimdReduceCmp            0      0.00%     80.03% # Number of instructions issued per FU type, per thread (Count)
system.cpu0.statIssuedInstType_0::SimdFloatReduceAdd            0      0.00%     80.03% # Number of instructions issued per FU type, per thread (Count)
system.cpu0.statIssuedInstType_0::SimdFloatReduceCmp            0      0.00%     80.03% # Number of instructions issued per FU type, per thread (Count)
system.cpu0.statIssuedInstType_0::SimdAes            0      0.00%     80.03% # Number of instructions issued per FU type, per thread (Count)
system.cpu0.statIssuedInstType_0::SimdAesMix            0      0.00%     80.03% # Number of instructions issued per FU type, per thread (Count)
system.cpu0.statIssuedInstType_0::SimdSha1Hash            0      0.00%     80.03% # Number of instructions issued per FU type, per thread (Count)
system.cpu0.statIssuedInstType_0::SimdSha1Hash2            0      0.00%     80.03% # Number of instructions issued per FU type, per thread (Count)
system.cpu0.statIssuedInstType_0::SimdSha256Hash            0      0.00%     80.03% # Number of instructions issued per FU type, per thread (Count)
system.cpu0.statIssuedInstType_0::SimdSha256Hash2            0      0.00%     80.03% # Number of instructions issued per FU type, per thread (Count)
system.cpu0.statIssuedInstType_0::SimdShaSigma2            0      0.00%     80.03% # Number of instructions issued per FU type, per thread (Count)
system.cpu0.statIssuedInstType_0::SimdShaSigma3            0      0.00%     80.03% # Number of instructions issued per FU type, per thread (Count)
system.cpu0.statIssuedInstType_0::SimdPredAlu            0      0.00%     80.03% # Number of instructions issued per FU type, per thread (Count)
system.cpu0.statIssuedInstType_0::MemRead       648006     13.64%     93.67% # Number of instructions issued per FU type, per thread (Count)
system.cpu0.statIssuedInstType_0::MemWrite       259991      5.47%     99.14% # Number of instructions issued per FU type, per thread (Count)
system.cpu0.statIssuedInstType_0::FloatMemRead        23565      0.50%     99.64% # Number of instructions issued per FU type, per thread (Count)
system.cpu0.statIssuedInstType_0::FloatMemWrite        17266      0.36%    100.00% # Number of instructions issued per FU type, per thread (Count)
system.cpu0.statIssuedInstType_0::IprAccess            0      0.00%    100.00% # Number of instructions issued per FU type, per thread (Count)
system.cpu0.statIssuedInstType_0::InstPrefetch            0      0.00%    100.00% # Number of instructions issued per FU type, per thread (Count)
system.cpu0.statIssuedInstType_0::total       4751266                       # Number of instructions issued per FU type, per thread (Count)
system.cpu0.issueRate                        0.469783                       # Inst issue rate ((Count/Cycle))
system.cpu0.fuBusy                              73177                       # FU busy when requested (Count)
system.cpu0.fuBusyRate                       0.015402                       # FU busy rate (busy events/executed inst) ((Count/Count))
system.cpu0.intInstQueueReads                18105493                       # Number of integer instruction queue reads (Count)
system.cpu0.intInstQueueWrites                5925106                       # Number of integer instruction queue writes (Count)
system.cpu0.intInstQueueWakeupAccesses        4594607                       # Number of integer instruction queue wakeup accesses (Count)
system.cpu0.fpInstQueueReads                   228519                       # Number of floating instruction queue reads (Count)
system.cpu0.fpInstQueueWrites                  154479                       # Number of floating instruction queue writes (Count)
system.cpu0.fpInstQueueWakeupAccesses          110213                       # Number of floating instruction queue wakeup accesses (Count)
system.cpu0.vecInstQueueReads                       0                       # Number of vector instruction queue reads (Count)
system.cpu0.vecInstQueueWrites                      0                       # Number of vector instruction queue writes (Count)
system.cpu0.vecInstQueueWakeupAccesses              0                       # Number of vector instruction queue wakeup accesses (Count)
system.cpu0.intAluAccesses                    4680503                       # Number of integer alu accesses (Count)
system.cpu0.fpAluAccesses                      114844                       # Number of floating point alu accesses (Count)
system.cpu0.vecAluAccesses                          0                       # Number of vector alu accesses (Count)
system.cpu0.numInsts                          4726850                       # Number of executed instructions (Count)
system.cpu0.numLoadInsts                       666521                       # Number of load instructions executed (Count)
system.cpu0.numSquashedInsts                    24416                       # Number of squashed instructions skipped in execute (Count)
system.cpu0.numSwp                                  0                       # Number of swp insts executed (Count)
system.cpu0.numNop                                  0                       # Number of nop insts executed (Count)
system.cpu0.numRefs                            941562                       # Number of memory reference insts executed (Count)
system.cpu0.numBranches                        410070                       # Number of branches executed (Count)
system.cpu0.numStoreInsts                      275041                       # Number of stores executed (Count)
system.cpu0.numRate                          0.467369                       # Inst execution rate ((Count/Cycle))
system.cpu0.timesIdled                           2701                       # Number of times that the entire CPU went into an idle state and unscheduled itself (Count)
system.cpu0.idleCycles                        1357227                       # Total number of cycles that the CPU has spent unscheduled due to idling (Cycle)
system.cpu0.committedInsts                    2418663                       # Number of Instructions Simulated (Count)
system.cpu0.committedOps                      4170248                       # Number of Ops (including micro ops) Simulated (Count)
system.cpu0.cpi                              4.181544                       # CPI: Cycles Per Instruction ((Cycle/Count))
system.cpu0.totalCpi                         4.181544                       # CPI: Total CPI of All Threads ((Cycle/Count))
system.cpu0.ipc                              0.239146                       # IPC: Instructions Per Cycle ((Count/Cycle))
system.cpu0.totalIpc                         0.239146                       # IPC: Total IPC of All Threads ((Count/Cycle))
system.cpu0.intRegfileReads                   6468997                       # Number of integer regfile reads (Count)
system.cpu0.intRegfileWrites                  3671723                       # Number of integer regfile writes (Count)
system.cpu0.fpRegfileReads                     145935                       # Number of floating regfile reads (Count)
system.cpu0.fpRegfileWrites                     84339                       # Number of floating regfile writes (Count)
system.cpu0.ccRegfileReads                    2489970                       # number of cc regfile reads (Count)
system.cpu0.ccRegfileWrites                   2114675                       # number of cc regfile writes (Count)
system.cpu0.miscRegfileReads                  1803346                       # number of misc regfile reads (Count)
system.cpu0.miscRegfileWrites                     684                       # number of misc regfile writes (Count)
system.cpu0.MemDepUnit__0.insertedLoads        703674                       # Number of loads inserted to the mem dependence unit. (Count)
system.cpu0.MemDepUnit__0.insertedStores       292048                       # Number of stores inserted to the mem dependence unit. (Count)
system.cpu0.MemDepUnit__0.conflictingLoads        31105                       # Number of conflicting loads. (Count)
system.cpu0.MemDepUnit__0.conflictingStores        17340                       # Number of conflicting stores. (Count)
system.cpu0.MemDepUnit__1.insertedLoads             0                       # Number of loads inserted to the mem dependence unit. (Count)
system.cpu0.MemDepUnit__1.insertedStores            0                       # Number of stores inserted to the mem dependence unit. (Count)
system.cpu0.MemDepUnit__1.conflictingLoads            0                       # Number of conflicting loads. (Count)
system.cpu0.MemDepUnit__1.conflictingStores            0                       # Number of conflicting stores. (Count)
system.cpu0.MemDepUnit__2.insertedLoads             0                       # Number of loads inserted to the mem dependence unit. (Count)
system.cpu0.MemDepUnit__2.insertedStores            0                       # Number of stores inserted to the mem dependence unit. (Count)
system.cpu0.MemDepUnit__2.conflictingLoads            0                       # Number of conflicting loads. (Count)
system.cpu0.MemDepUnit__2.conflictingStores            0                       # Number of conflicting stores. (Count)
system.cpu0.MemDepUnit__3.insertedLoads             0                       # Number of loads inserted to the mem dependence unit. (Count)
system.cpu0.MemDepUnit__3.insertedStores            0                       # Number of stores inserted to the mem dependence unit. (Count)
system.cpu0.MemDepUnit__3.conflictingLoads            0                       # Number of conflicting loads. (Count)
system.cpu0.MemDepUnit__3.conflictingStores            0                       # Number of conflicting stores. (Count)
system.cpu0.branchPred.lookups                 508816                       # Number of BP lookups (Count)
system.cpu0.branchPred.condPredicted           435040                       # Number of conditional branches predicted (Count)
system.cpu0.branchPred.condIncorrect            14384                       # Number of conditional branches incorrect (Count)
system.cpu0.branchPred.BTBLookups              271341                       # Number of BTB lookups (Count)
system.cpu0.branchPred.BTBUpdates                7738                       # Number of BTB updates (Count)
system.cpu0.branchPred.BTBHits                 267141                       # Number of BTB hits (Count)
system.cpu0.branchPred.BTBHitRatio           0.984521                       # BTB Hit Ratio (Ratio)
system.cpu0.branchPred.RASUsed                  17593                       # Number of times the RAS was used to get a target. (Count)
system.cpu0.branchPred.RASIncorrect                11                       # Number of incorrect RAS predictions. (Count)
system.cpu0.branchPred.indirectLookups          11881                       # Number of indirect predictor lookups. (Count)
system.cpu0.branchPred.indirectHits              5860                       # Number of indirect target hits. (Count)
system.cpu0.branchPred.indirectMisses            6021                       # Number of indirect misses. (Count)
system.cpu0.branchPred.indirectMispredicted         1240                       # Number of mispredicted indirect branches. (Count)
system.cpu0.commit.commitSquashedInsts         949246                       # The number of squashed insts skipped by commit (Count)
system.cpu0.commit.commitNonSpecStalls           1230                       # The number of times commit has been forced to stall to communicate backwards (Count)
system.cpu0.commit.branchMispredicts            14872                       # The number of times a branch was mispredicted (Count)
system.cpu0.commit.numCommittedDist::samples      8627310                       # Number of insts commited each cycle (Count)
system.cpu0.commit.numCommittedDist::mean     0.483378                       # Number of insts commited each cycle (Count)
system.cpu0.commit.numCommittedDist::stdev     1.563406                       # Number of insts commited each cycle (Count)
system.cpu0.commit.numCommittedDist::underflows            0      0.00%      0.00% # Number of insts commited each cycle (Count)
system.cpu0.commit.numCommittedDist::0        7560148     87.63%     87.63% # Number of insts commited each cycle (Count)
system.cpu0.commit.numCommittedDist::1         233530      2.71%     90.34% # Number of insts commited each cycle (Count)
system.cpu0.commit.numCommittedDist::2         120794      1.40%     91.74% # Number of insts commited each cycle (Count)
system.cpu0.commit.numCommittedDist::3         272848      3.16%     94.90% # Number of insts commited each cycle (Count)
system.cpu0.commit.numCommittedDist::4          53850      0.62%     95.52% # Number of insts commited each cycle (Count)
system.cpu0.commit.numCommittedDist::5         121576      1.41%     96.93% # Number of insts commited each cycle (Count)
system.cpu0.commit.numCommittedDist::6          22825      0.26%     97.20% # Number of insts commited each cycle (Count)
system.cpu0.commit.numCommittedDist::7          17556      0.20%     97.40% # Number of insts commited each cycle (Count)
system.cpu0.commit.numCommittedDist::8         224183      2.60%    100.00% # Number of insts commited each cycle (Count)
system.cpu0.commit.numCommittedDist::overflows            0      0.00%    100.00% # Number of insts commited each cycle (Count)
system.cpu0.commit.numCommittedDist::min_value            0                       # Number of insts commited each cycle (Count)
system.cpu0.commit.numCommittedDist::max_value            8                       # Number of insts commited each cycle (Count)
system.cpu0.commit.numCommittedDist::total      8627310                       # Number of insts commited each cycle (Count)
system.cpu0.commit.instsCommitted             2418663                       # Number of instructions committed (Count)
system.cpu0.commit.opsCommitted               4170248                       # Number of ops (including micro ops) committed (Count)
system.cpu0.commit.memRefs                     811607                       # Number of memory references committed (Count)
system.cpu0.commit.loads                       577620                       # Number of loads committed (Count)
system.cpu0.commit.amos                             0                       # Number of atomic instructions committed (Count)
system.cpu0.commit.membars                        364                       # Number of memory barriers committed (Count)
system.cpu0.commit.branches                    384570                       # Number of branches committed (Count)
system.cpu0.commit.vectorInstructions               0                       # Number of committed Vector instructions. (Count)
system.cpu0.commit.floating                     96663                       # Number of committed floating point instructions. (Count)
system.cpu0.commit.integer                    4094380                       # Number of committed integer instructions. (Count)
system.cpu0.commit.functionCalls                14553                       # Number of function calls committed. (Count)
system.cpu0.commit.committedInstType_0::No_OpClass        17367      0.42%      0.42% # Class of committed instruction (Count)
system.cpu0.commit.committedInstType_0::IntAlu      3245831     77.83%     78.25% # Class of committed instruction (Count)
system.cpu0.commit.committedInstType_0::IntMult         1164      0.03%     78.28% # Class of committed instruction (Count)
system.cpu0.commit.committedInstType_0::IntDiv        36166      0.87%     79.14% # Class of committed instruction (Count)
system.cpu0.commit.committedInstType_0::FloatAdd         9322      0.22%     79.37% # Class of committed instruction (Count)
system.cpu0.commit.committedInstType_0::FloatCmp            0      0.00%     79.37% # Class of committed instruction (Count)
system.cpu0.commit.committedInstType_0::FloatCvt         1216      0.03%     79.40% # Class of committed instruction (Count)
system.cpu0.commit.committedInstType_0::FloatMult            0      0.00%     79.40% # Class of committed instruction (Count)
system.cpu0.commit.committedInstType_0::FloatMultAcc            0      0.00%     79.40% # Class of committed instruction (Count)
system.cpu0.commit.committedInstType_0::FloatDiv            0      0.00%     79.40% # Class of committed instruction (Count)
system.cpu0.commit.committedInstType_0::FloatMisc            0      0.00%     79.40% # Class of committed instruction (Count)
system.cpu0.commit.committedInstType_0::FloatSqrt            0      0.00%     79.40% # Class of committed instruction (Count)
system.cpu0.commit.committedInstType_0::SimdAdd         5654      0.14%     79.53% # Class of committed instruction (Count)
system.cpu0.commit.committedInstType_0::SimdAddAcc            0      0.00%     79.53% # Class of committed instruction (Count)
system.cpu0.commit.committedInstType_0::SimdAlu        12972      0.31%     79.84% # Class of committed instruction (Count)
system.cpu0.commit.committedInstType_0::SimdCmp           12      0.00%     79.84% # Class of committed instruction (Count)
system.cpu0.commit.committedInstType_0::SimdCvt        12830      0.31%     80.15% # Class of committed instruction (Count)
system.cpu0.commit.committedInstType_0::SimdMisc        14470      0.35%     80.50% # Class of committed instruction (Count)
system.cpu0.commit.committedInstType_0::SimdMult            0      0.00%     80.50% # Class of committed instruction (Count)
system.cpu0.commit.committedInstType_0::SimdMultAcc            0      0.00%     80.50% # Class of committed instruction (Count)
system.cpu0.commit.committedInstType_0::SimdShift          737      0.02%     80.52% # Class of committed instruction (Count)
system.cpu0.commit.committedInstType_0::SimdShiftAcc            0      0.00%     80.52% # Class of committed instruction (Count)
system.cpu0.commit.committedInstType_0::SimdDiv            0      0.00%     80.52% # Class of committed instruction (Count)
system.cpu0.commit.committedInstType_0::SimdSqrt            0      0.00%     80.52% # Class of committed instruction (Count)
system.cpu0.commit.committedInstType_0::SimdFloatAdd          384      0.01%     80.53% # Class of committed instruction (Count)
system.cpu0.commit.committedInstType_0::SimdFloatAlu            0      0.00%     80.53% # Class of committed instruction (Count)
system.cpu0.commit.committedInstType_0::SimdFloatCmp            0      0.00%     80.53% # Class of committed instruction (Count)
system.cpu0.commit.committedInstType_0::SimdFloatCvt          322      0.01%     80.53% # Class of committed instruction (Count)
system.cpu0.commit.committedInstType_0::SimdFloatDiv            0      0.00%     80.53% # Class of committed instruction (Count)
system.cpu0.commit.committedInstType_0::SimdFloatMisc            0      0.00%     80.53% # Class of committed instruction (Count)
system.cpu0.commit.committedInstType_0::SimdFloatMult          194      0.00%     80.54% # Class of committed instruction (Count)
system.cpu0.commit.committedInstType_0::SimdFloatMultAcc            0      0.00%     80.54% # Class of committed instruction (Count)
system.cpu0.commit.committedInstType_0::SimdFloatSqrt            0      0.00%     80.54% # Class of committed instruction (Count)
system.cpu0.commit.committedInstType_0::SimdReduceAdd            0      0.00%     80.54% # Class of committed instruction (Count)
system.cpu0.commit.committedInstType_0::SimdReduceAlu            0      0.00%     80.54% # Class of committed instruction (Count)
system.cpu0.commit.committedInstType_0::SimdReduceCmp            0      0.00%     80.54% # Class of committed instruction (Count)
system.cpu0.commit.committedInstType_0::SimdFloatReduceAdd            0      0.00%     80.54% # Class of committed instruction (Count)
system.cpu0.commit.committedInstType_0::SimdFloatReduceCmp            0      0.00%     80.54% # Class of committed instruction (Count)
system.cpu0.commit.committedInstType_0::SimdAes            0      0.00%     80.54% # Class of committed instruction (Count)
system.cpu0.commit.committedInstType_0::SimdAesMix            0      0.00%     80.54% # Class of committed instruction (Count)
system.cpu0.commit.committedInstType_0::SimdSha1Hash            0      0.00%     80.54% # Class of committed instruction (Count)
system.cpu0.commit.committedInstType_0::SimdSha1Hash2            0      0.00%     80.54% # Class of committed instruction (Count)
system.cpu0.commit.committedInstType_0::SimdSha256Hash            0      0.00%     80.54% # Class of committed instruction (Count)
system.cpu0.commit.committedInstType_0::SimdSha256Hash2            0      0.00%     80.54% # Class of committed instruction (Count)
system.cpu0.commit.committedInstType_0::SimdShaSigma2            0      0.00%     80.54% # Class of committed instruction (Count)
system.cpu0.commit.committedInstType_0::SimdShaSigma3            0      0.00%     80.54% # Class of committed instruction (Count)
system.cpu0.commit.committedInstType_0::SimdPredAlu            0      0.00%     80.54% # Class of committed instruction (Count)
system.cpu0.commit.committedInstType_0::MemRead       559489     13.42%     93.95% # Class of committed instruction (Count)
system.cpu0.commit.committedInstType_0::MemWrite       217679      5.22%     99.17% # Class of committed instruction (Count)
system.cpu0.commit.committedInstType_0::FloatMemRead        18131      0.43%     99.61% # Class of committed instruction (Count)
system.cpu0.commit.committedInstType_0::FloatMemWrite        16308      0.39%    100.00% # Class of committed instruction (Count)
system.cpu0.commit.committedInstType_0::IprAccess            0      0.00%    100.00% # Class of committed instruction (Count)
system.cpu0.commit.committedInstType_0::InstPrefetch            0      0.00%    100.00% # Class of committed instruction (Count)
system.cpu0.commit.committedInstType_0::total      4170248                       # Class of committed instruction (Count)
system.cpu0.commit.commitEligibleSamples       224183                       # number cycles where commit BW limit reached (Cycle)
system.cpu0.decode.idleCycles                  593533                       # Number of cycles decode is idle (Cycle)
system.cpu0.decode.blockedCycles              7390505                       # Number of cycles decode is blocked (Cycle)
system.cpu0.decode.runCycles                   548350                       # Number of cycles decode is running (Cycle)
system.cpu0.decode.unblockCycles               208475                       # Number of cycles decode is unblocking (Cycle)
system.cpu0.decode.squashCycles                 15655                       # Number of cycles decode is squashing (Cycle)
system.cpu0.decode.branchResolved              255705                       # Number of times decode resolved a branch (Count)
system.cpu0.decode.branchMispred                 1433                       # Number of times decode detected a branch misprediction (Count)
system.cpu0.decode.decodedInsts               5293988                       # Number of instructions handled by decode (Count)
system.cpu0.decode.squashedInsts                 7337                       # Number of squashed instructions handled by decode (Count)
system.cpu0.fetch.icacheStallCycles            535807                       # Number of cycles fetch is stalled on an Icache miss (Cycle)
system.cpu0.fetch.insts                       3202224                       # Number of instructions fetch has processed (Count)
system.cpu0.fetch.branches                     508816                       # Number of branches that fetch encountered (Count)
system.cpu0.fetch.predictedBranches            290594                       # Number of branches that fetch has predicted taken (Count)
system.cpu0.fetch.cycles                      7985718                       # Number of cycles fetch has run and was not squashing or blocked (Cycle)
system.cpu0.fetch.squashCycles                  34122                       # Number of cycles fetch has spent squashing (Cycle)
system.cpu0.fetch.miscStallCycles                7780                       # Number of cycles fetch has spent waiting on interrupts, or bad addresses, or out of MSHRs (Cycle)
system.cpu0.fetch.pendingTrapStallCycles        13726                       # Number of stall cycles due to pending traps (Cycle)
system.cpu0.fetch.icacheWaitRetryStallCycles       196426                       # Number of stall cycles due to full MSHR (Cycle)
system.cpu0.fetch.cacheLines                   265022                       # Number of cache lines fetched (Count)
system.cpu0.fetch.icacheSquashes                 3804                       # Number of outstanding Icache misses that were squashed (Count)
system.cpu0.fetch.nisnDist::samples           8756518                       # Number of instructions fetched each cycle (Total) (Count)
system.cpu0.fetch.nisnDist::mean             0.632556                       # Number of instructions fetched each cycle (Total) (Count)
system.cpu0.fetch.nisnDist::stdev            2.008666                       # Number of instructions fetched each cycle (Total) (Count)
system.cpu0.fetch.nisnDist::underflows              0      0.00%      0.00% # Number of instructions fetched each cycle (Total) (Count)
system.cpu0.fetch.nisnDist::0                 7851945     89.67%     89.67% # Number of instructions fetched each cycle (Total) (Count)
system.cpu0.fetch.nisnDist::1                   43768      0.50%     90.17% # Number of instructions fetched each cycle (Total) (Count)
system.cpu0.fetch.nisnDist::2                   51406      0.59%     90.76% # Number of instructions fetched each cycle (Total) (Count)
system.cpu0.fetch.nisnDist::3                   58636      0.67%     91.43% # Number of instructions fetched each cycle (Total) (Count)
system.cpu0.fetch.nisnDist::4                  126686      1.45%     92.87% # Number of instructions fetched each cycle (Total) (Count)
system.cpu0.fetch.nisnDist::5                   33637      0.38%     93.26% # Number of instructions fetched each cycle (Total) (Count)
system.cpu0.fetch.nisnDist::6                   65026      0.74%     94.00% # Number of instructions fetched each cycle (Total) (Count)
system.cpu0.fetch.nisnDist::7                   51897      0.59%     94.59% # Number of instructions fetched each cycle (Total) (Count)
system.cpu0.fetch.nisnDist::8                  473517      5.41%    100.00% # Number of instructions fetched each cycle (Total) (Count)
system.cpu0.fetch.nisnDist::overflows               0      0.00%    100.00% # Number of instructions fetched each cycle (Total) (Count)
system.cpu0.fetch.nisnDist::min_value               0                       # Number of instructions fetched each cycle (Total) (Count)
system.cpu0.fetch.nisnDist::max_value               8                       # Number of instructions fetched each cycle (Total) (Count)
system.cpu0.fetch.nisnDist::total             8756518                       # Number of instructions fetched each cycle (Total) (Count)
system.cpu0.fetch.branchRate                 0.050309                       # Number of branch fetches per cycle (Ratio)
system.cpu0.fetch.rate                       0.316621                       # Number of inst fetches per cycle ((Count/Cycle))
system.cpu0.iew.idleCycles                          0                       # Number of cycles IEW is idle (Cycle)
system.cpu0.iew.squashCycles                    15655                       # Number of cycles IEW is squashing (Cycle)
system.cpu0.iew.blockCycles                   5660659                       # Number of cycles IEW is blocking (Cycle)
system.cpu0.iew.unblockCycles                  107800                       # Number of cycles IEW is unblocking (Cycle)
system.cpu0.iew.dispatchedInsts               5124770                       # Number of instructions dispatched to IQ (Count)
system.cpu0.iew.dispSquashedInsts                1363                       # Number of squashed instructions skipped by dispatch (Count)
system.cpu0.iew.dispLoadInsts                  703674                       # Number of dispatched load instructions (Count)
system.cpu0.iew.dispStoreInsts                 292048                       # Number of dispatched store instructions (Count)
system.cpu0.iew.dispNonSpecInsts                  994                       # Number of dispatched non-speculative instructions (Count)
system.cpu0.iew.iqFullEvents                    10072                       # Number of times the IQ has become full, causing a stall (Count)
system.cpu0.iew.lsqFullEvents                   91516                       # Number of times the LSQ has become full, causing a stall (Count)
system.cpu0.iew.memOrderViolationEvents           303                       # Number of memory order violations (Count)
system.cpu0.iew.predictedTakenIncorrect          5680                       # Number of branches that were predicted taken incorrectly (Count)
system.cpu0.iew.predictedNotTakenIncorrect        11399                       # Number of branches that were predicted not taken incorrectly (Count)
system.cpu0.iew.branchMispredicts               17079                       # Number of branch mispredicts detected at execute (Count)
system.cpu0.iew.instsToCommit                 4713699                       # Cumulative count of insts sent to commit (Count)
system.cpu0.iew.writebackCount                4704820                       # Cumulative count of insts written-back (Count)
system.cpu0.iew.producerInst                  3695405                       # Number of instructions producing a value (Count)
system.cpu0.iew.consumerInst                  6821723                       # Number of instructions consuming a value (Count)
system.cpu0.iew.wbRate                       0.465191                       # Insts written-back per cycle ((Count/Cycle))
system.cpu0.iew.wbFanout                     0.541711                       # Average fanout of values written-back ((Count/Count))
system.cpu0.interrupts.clk_domain.clock          8000                       # Clock period in ticks (Tick)
system.cpu0.lsq0.forwLoads                      62722                       # Number of loads that had data forwarded from stores (Count)
system.cpu0.lsq0.squashedLoads                 126054                       # Number of loads squashed (Count)
system.cpu0.lsq0.ignoredResponses                  66                       # Number of memory responses ignored because the instruction is squashed (Count)
system.cpu0.lsq0.memOrderViolation                303                       # Number of memory ordering violations (Count)
system.cpu0.lsq0.squashedStores                 58061                       # Number of stores squashed (Count)
system.cpu0.lsq0.rescheduledLoads                  26                       # Number of loads that were rescheduled (Count)
system.cpu0.lsq0.blockedByCache                  1483                       # Number of times an access to memory failed due to the cache being blocked (Count)
system.cpu0.lsq0.loadToUse::samples            577620                       # Distribution of cycle latency between the first time a load is issued and its completion (Unspecified)
system.cpu0.lsq0.loadToUse::mean            52.910573                       # Distribution of cycle latency between the first time a load is issued and its completion (Unspecified)
system.cpu0.lsq0.loadToUse::stdev          195.233523                       # Distribution of cycle latency between the first time a load is issued and its completion (Unspecified)
system.cpu0.lsq0.loadToUse::0-9                536034     92.80%     92.80% # Distribution of cycle latency between the first time a load is issued and its completion (Unspecified)
system.cpu0.lsq0.loadToUse::10-19                  35      0.01%     92.81% # Distribution of cycle latency between the first time a load is issued and its completion (Unspecified)
system.cpu0.lsq0.loadToUse::20-29                  27      0.00%     92.81% # Distribution of cycle latency between the first time a load is issued and its completion (Unspecified)
system.cpu0.lsq0.loadToUse::30-39                  45      0.01%     92.82% # Distribution of cycle latency between the first time a load is issued and its completion (Unspecified)
system.cpu0.lsq0.loadToUse::40-49                  68      0.01%     92.83% # Distribution of cycle latency between the first time a load is issued and its completion (Unspecified)
system.cpu0.lsq0.loadToUse::50-59                 107      0.02%     92.85% # Distribution of cycle latency between the first time a load is issued and its completion (Unspecified)
system.cpu0.lsq0.loadToUse::60-69                  62      0.01%     92.86% # Distribution of cycle latency between the first time a load is issued and its completion (Unspecified)
system.cpu0.lsq0.loadToUse::70-79                  17      0.00%     92.86% # Distribution of cycle latency between the first time a load is issued and its completion (Unspecified)
system.cpu0.lsq0.loadToUse::80-89                  18      0.00%     92.87% # Distribution of cycle latency between the first time a load is issued and its completion (Unspecified)
system.cpu0.lsq0.loadToUse::90-99                  24      0.00%     92.87% # Distribution of cycle latency between the first time a load is issued and its completion (Unspecified)
system.cpu0.lsq0.loadToUse::100-109                28      0.00%     92.88% # Distribution of cycle latency between the first time a load is issued and its completion (Unspecified)
system.cpu0.lsq0.loadToUse::110-119                33      0.01%     92.88% # Distribution of cycle latency between the first time a load is issued and its completion (Unspecified)
system.cpu0.lsq0.loadToUse::120-129                12      0.00%     92.88% # Distribution of cycle latency between the first time a load is issued and its completion (Unspecified)
system.cpu0.lsq0.loadToUse::130-139                16      0.00%     92.89% # Distribution of cycle latency between the first time a load is issued and its completion (Unspecified)
system.cpu0.lsq0.loadToUse::140-149                22      0.00%     92.89% # Distribution of cycle latency between the first time a load is issued and its completion (Unspecified)
system.cpu0.lsq0.loadToUse::150-159                34      0.01%     92.90% # Distribution of cycle latency between the first time a load is issued and its completion (Unspecified)
system.cpu0.lsq0.loadToUse::160-169                39      0.01%     92.90% # Distribution of cycle latency between the first time a load is issued and its completion (Unspecified)
system.cpu0.lsq0.loadToUse::170-179                90      0.02%     92.92% # Distribution of cycle latency between the first time a load is issued and its completion (Unspecified)
system.cpu0.lsq0.loadToUse::180-189               527      0.09%     93.01% # Distribution of cycle latency between the first time a load is issued and its completion (Unspecified)
system.cpu0.lsq0.loadToUse::190-199                18      0.00%     93.01% # Distribution of cycle latency between the first time a load is issued and its completion (Unspecified)
system.cpu0.lsq0.loadToUse::200-209                39      0.01%     93.02% # Distribution of cycle latency between the first time a load is issued and its completion (Unspecified)
system.cpu0.lsq0.loadToUse::210-219                40      0.01%     93.03% # Distribution of cycle latency between the first time a load is issued and its completion (Unspecified)
system.cpu0.lsq0.loadToUse::220-229                42      0.01%     93.03% # Distribution of cycle latency between the first time a load is issued and its completion (Unspecified)
system.cpu0.lsq0.loadToUse::230-239               133      0.02%     93.06% # Distribution of cycle latency between the first time a load is issued and its completion (Unspecified)
system.cpu0.lsq0.loadToUse::240-249               871      0.15%     93.21% # Distribution of cycle latency between the first time a load is issued and its completion (Unspecified)
system.cpu0.lsq0.loadToUse::250-259                27      0.00%     93.21% # Distribution of cycle latency between the first time a load is issued and its completion (Unspecified)
system.cpu0.lsq0.loadToUse::260-269                27      0.00%     93.22% # Distribution of cycle latency between the first time a load is issued and its completion (Unspecified)
system.cpu0.lsq0.loadToUse::270-279                64      0.01%     93.23% # Distribution of cycle latency between the first time a load is issued and its completion (Unspecified)
system.cpu0.lsq0.loadToUse::280-289                64      0.01%     93.24% # Distribution of cycle latency between the first time a load is issued and its completion (Unspecified)
system.cpu0.lsq0.loadToUse::290-299               218      0.04%     93.28% # Distribution of cycle latency between the first time a load is issued and its completion (Unspecified)
system.cpu0.lsq0.loadToUse::overflows           38839      6.72%    100.00% # Distribution of cycle latency between the first time a load is issued and its completion (Unspecified)
system.cpu0.lsq0.loadToUse::min_value               2                       # Distribution of cycle latency between the first time a load is issued and its completion (Unspecified)
system.cpu0.lsq0.loadToUse::max_value            2389                       # Distribution of cycle latency between the first time a load is issued and its completion (Unspecified)
system.cpu0.lsq0.loadToUse::total              577620                       # Distribution of cycle latency between the first time a load is issued and its completion (Unspecified)
system.cpu0.mmu.dtb.rdAccesses                 662403                       # TLB accesses on read requests (Count)
system.cpu0.mmu.dtb.wrAccesses                 275082                       # TLB accesses on write requests (Count)
system.cpu0.mmu.dtb.rdMisses                     3450                       # TLB misses on read requests (Count)
system.cpu0.mmu.dtb.wrMisses                      433                       # TLB misses on write requests (Count)
system.cpu0.mmu.dtb.walker.power_state.pwrStateResidencyTicks::UNDEFINED  32496687500                       # Cumulative time (in ticks) in various power states (Tick)
system.cpu0.mmu.itb.rdAccesses                      0                       # TLB accesses on read requests (Count)
system.cpu0.mmu.itb.wrAccesses                 267004                       # TLB accesses on write requests (Count)
system.cpu0.mmu.itb.rdMisses                        0                       # TLB misses on read requests (Count)
system.cpu0.mmu.itb.wrMisses                     2894                       # TLB misses on write requests (Count)
system.cpu0.mmu.itb.walker.power_state.pwrStateResidencyTicks::UNDEFINED  32496687500                       # Cumulative time (in ticks) in various power states (Tick)
system.cpu0.power_state.pwrStateResidencyTicks::ON  32496687500                       # Cumulative time (in ticks) in various power states (Tick)
system.cpu0.rename.squashCycles                 15655                       # Number of cycles rename is squashing (Cycle)
system.cpu0.rename.idleCycles                  669187                       # Number of cycles rename is idle (Cycle)
system.cpu0.rename.blockCycles                6366100                       # Number of cycles rename is blocking (Cycle)
system.cpu0.rename.serializeStallCycles         17282                       # count of cycles rename stalled for serializing inst (Cycle)
system.cpu0.rename.runCycles                   672304                       # Number of cycles rename is running (Cycle)
system.cpu0.rename.unblockCycles              1015990                       # Number of cycles rename is unblocking (Cycle)
system.cpu0.rename.renamedInsts               5222896                       # Number of instructions processed by rename (Count)
system.cpu0.rename.ROBFullEvents                14822                       # Number of times rename has blocked due to ROB full (Count)
system.cpu0.rename.IQFullEvents                272303                       # Number of times rename has blocked due to IQ full (Count)
system.cpu0.rename.LQFullEvents                107780                       # Number of times rename has blocked due to LQ full (Count)
system.cpu0.rename.SQFullEvents                585466                       # Number of times rename has blocked due to SQ full (Count)
system.cpu0.rename.fullRegistersEvents           2205                       # Number of times there has been no free registers (Count)
system.cpu0.rename.renamedOperands           10694192                       # Number of destination operands rename has renamed (Count)
system.cpu0.rename.lookups                   19313343                       # Number of register rename lookups that rename has made (Count)
system.cpu0.rename.intLookups                 7409768                       # Number of integer rename lookups (Count)
system.cpu0.rename.fpLookups                   181110                       # Number of floating rename lookups (Count)
system.cpu0.rename.committedMaps              8616440                       # Number of HB maps that are committed (Count)
system.cpu0.rename.undoneMaps                 2077752                       # Number of HB maps that are undone due to squashing (Count)
system.cpu0.rename.serializing                    762                       # count of serializing insts renamed (Count)
system.cpu0.rename.tempSerializing                749                       # count of temporary serializing insts renamed (Count)
system.cpu0.rename.skidInsts                   921159                       # count of insts added to the skid buffer (Count)
system.cpu0.rob.reads                        13515809                       # The number of ROB reads (Count)
system.cpu0.rob.writes                       10368430                       # The number of ROB writes (Count)
system.cpu0.thread_0.numInsts                 2418663                       # Number of Instructions committed (Count)
system.cpu0.thread_0.numOps                   4170248                       # Number of Ops committed (Count)
system.cpu0.thread_0.numMemRefs                     0                       # Number of Memory References (Count)
system.cpu0.workload.numSyscalls                  110                       # Number of system calls (Count)
system.cpu1.numCycles                         9301116                       # Number of cpu cycles simulated (Cycle)
system.cpu1.numWorkItemsStarted                     0                       # Number of work items this cpu started (Count)
system.cpu1.numWorkItemsCompleted                   0                       # Number of work items this cpu completed (Count)
system.cpu1.instsAdded                        4769467                       # Number of instructions added to the IQ (excludes non-spec) (Count)
system.cpu1.nonSpecInstsAdded                     844                       # Number of non-speculative instructions added to the IQ (Count)
system.cpu1.instsIssued                       4408447                       # Number of instructions issued (Count)
system.cpu1.squashedInstsIssued                  1726                       # Number of squashed instructions issued (Count)
system.cpu1.squashedInstsExamined              917780                       # Number of squashed instructions iterated over during squash; mainly for profiling (Count)
system.cpu1.squashedOperandsExamined          2102172                       # Number of squashed operands that are examined and possibly removed from graph (Count)
system.cpu1.squashedNonSpecRemoved                106                       # Number of squashed non-spec instructions that were removed (Count)
system.cpu1.numIssuedDist::samples            8194056                       # Number of insts issued each cycle (Count)
system.cpu1.numIssuedDist::mean              0.538005                       # Number of insts issued each cycle (Count)
system.cpu1.numIssuedDist::stdev             1.486356                       # Number of insts issued each cycle (Count)
system.cpu1.numIssuedDist::underflows               0      0.00%      0.00% # Number of insts issued each cycle (Count)
system.cpu1.numIssuedDist::0                  6963433     84.98%     84.98% # Number of insts issued each cycle (Count)
system.cpu1.numIssuedDist::1                   197986      2.42%     87.40% # Number of insts issued each cycle (Count)
system.cpu1.numIssuedDist::2                   223816      2.73%     90.13% # Number of insts issued each cycle (Count)
system.cpu1.numIssuedDist::3                   240294      2.93%     93.06% # Number of insts issued each cycle (Count)
system.cpu1.numIssuedDist::4                   192811      2.35%     95.41% # Number of insts issued each cycle (Count)
system.cpu1.numIssuedDist::5                   150991      1.84%     97.26% # Number of insts issued each cycle (Count)
system.cpu1.numIssuedDist::6                   103629      1.26%     98.52% # Number of insts issued each cycle (Count)
system.cpu1.numIssuedDist::7                    74794      0.91%     99.43% # Number of insts issued each cycle (Count)
system.cpu1.numIssuedDist::8                    46302      0.57%    100.00% # Number of insts issued each cycle (Count)
system.cpu1.numIssuedDist::overflows                0      0.00%    100.00% # Number of insts issued each cycle (Count)
system.cpu1.numIssuedDist::min_value                0                       # Number of insts issued each cycle (Count)
system.cpu1.numIssuedDist::max_value                8                       # Number of insts issued each cycle (Count)
system.cpu1.numIssuedDist::total              8194056                       # Number of insts issued each cycle (Count)
system.cpu1.statFuBusy::No_OpClass                  0      0.00%      0.00% # attempts to use FU when none available (Count)
system.cpu1.statFuBusy::IntAlu                  45052     65.58%     65.58% # attempts to use FU when none available (Count)
system.cpu1.statFuBusy::IntMult                     0      0.00%     65.58% # attempts to use FU when none available (Count)
system.cpu1.statFuBusy::IntDiv                      0      0.00%     65.58% # attempts to use FU when none available (Count)
system.cpu1.statFuBusy::FloatAdd                    0      0.00%     65.58% # attempts to use FU when none available (Count)
system.cpu1.statFuBusy::FloatCmp                    0      0.00%     65.58% # attempts to use FU when none available (Count)
system.cpu1.statFuBusy::FloatCvt                    0      0.00%     65.58% # attempts to use FU when none available (Count)
system.cpu1.statFuBusy::FloatMult                   0      0.00%     65.58% # attempts to use FU when none available (Count)
system.cpu1.statFuBusy::FloatMultAcc                0      0.00%     65.58% # attempts to use FU when none available (Count)
system.cpu1.statFuBusy::FloatDiv                    0      0.00%     65.58% # attempts to use FU when none available (Count)
system.cpu1.statFuBusy::FloatMisc                   0      0.00%     65.58% # attempts to use FU when none available (Count)
system.cpu1.statFuBusy::FloatSqrt                   0      0.00%     65.58% # attempts to use FU when none available (Count)
system.cpu1.statFuBusy::SimdAdd                     3      0.00%     65.58% # attempts to use FU when none available (Count)
system.cpu1.statFuBusy::SimdAddAcc                  0      0.00%     65.58% # attempts to use FU when none available (Count)
system.cpu1.statFuBusy::SimdAlu                   113      0.16%     65.74% # attempts to use FU when none available (Count)
system.cpu1.statFuBusy::SimdCmp                     0      0.00%     65.74% # attempts to use FU when none available (Count)
system.cpu1.statFuBusy::SimdCvt                   224      0.33%     66.07% # attempts to use FU when none available (Count)
system.cpu1.statFuBusy::SimdMisc                    6      0.01%     66.08% # attempts to use FU when none available (Count)
system.cpu1.statFuBusy::SimdMult                    0      0.00%     66.08% # attempts to use FU when none available (Count)
system.cpu1.statFuBusy::SimdMultAcc                 0      0.00%     66.08% # attempts to use FU when none available (Count)
system.cpu1.statFuBusy::SimdShift                 116      0.17%     66.25% # attempts to use FU when none available (Count)
system.cpu1.statFuBusy::SimdShiftAcc                0      0.00%     66.25% # attempts to use FU when none available (Count)
system.cpu1.statFuBusy::SimdDiv                     0      0.00%     66.25% # attempts to use FU when none available (Count)
system.cpu1.statFuBusy::SimdSqrt                    0      0.00%     66.25% # attempts to use FU when none available (Count)
system.cpu1.statFuBusy::SimdFloatAdd                0      0.00%     66.25% # attempts to use FU when none available (Count)
system.cpu1.statFuBusy::SimdFloatAlu                0      0.00%     66.25% # attempts to use FU when none available (Count)
system.cpu1.statFuBusy::SimdFloatCmp                0      0.00%     66.25% # attempts to use FU when none available (Count)
system.cpu1.statFuBusy::SimdFloatCvt                0      0.00%     66.25% # attempts to use FU when none available (Count)
system.cpu1.statFuBusy::SimdFloatDiv                0      0.00%     66.25% # attempts to use FU when none available (Count)
system.cpu1.statFuBusy::SimdFloatMisc               0      0.00%     66.25% # attempts to use FU when none available (Count)
system.cpu1.statFuBusy::SimdFloatMult               0      0.00%     66.25% # attempts to use FU when none available (Count)
system.cpu1.statFuBusy::SimdFloatMultAcc            0      0.00%     66.25% # attempts to use FU when none available (Count)
system.cpu1.statFuBusy::SimdFloatSqrt               0      0.00%     66.25% # attempts to use FU when none available (Count)
system.cpu1.statFuBusy::SimdReduceAdd               0      0.00%     66.25% # attempts to use FU when none available (Count)
system.cpu1.statFuBusy::SimdReduceAlu               0      0.00%     66.25% # attempts to use FU when none available (Count)
system.cpu1.statFuBusy::SimdReduceCmp               0      0.00%     66.25% # attempts to use FU when none available (Count)
system.cpu1.statFuBusy::SimdFloatReduceAdd            0      0.00%     66.25% # attempts to use FU when none available (Count)
system.cpu1.statFuBusy::SimdFloatReduceCmp            0      0.00%     66.25% # attempts to use FU when none available (Count)
system.cpu1.statFuBusy::SimdAes                     0      0.00%     66.25% # attempts to use FU when none available (Count)
system.cpu1.statFuBusy::SimdAesMix                  0      0.00%     66.25% # attempts to use FU when none available (Count)
system.cpu1.statFuBusy::SimdSha1Hash                0      0.00%     66.25% # attempts to use FU when none available (Count)
system.cpu1.statFuBusy::SimdSha1Hash2               0      0.00%     66.25% # attempts to use FU when none available (Count)
system.cpu1.statFuBusy::SimdSha256Hash              0      0.00%     66.25% # attempts to use FU when none available (Count)
system.cpu1.statFuBusy::SimdSha256Hash2             0      0.00%     66.25% # attempts to use FU when none available (Count)
system.cpu1.statFuBusy::SimdShaSigma2               0      0.00%     66.25% # attempts to use FU when none available (Count)
system.cpu1.statFuBusy::SimdShaSigma3               0      0.00%     66.25% # attempts to use FU when none available (Count)
system.cpu1.statFuBusy::SimdPredAlu                 0      0.00%     66.25% # attempts to use FU when none available (Count)
system.cpu1.statFuBusy::MemRead                 12577     18.31%     84.56% # attempts to use FU when none available (Count)
system.cpu1.statFuBusy::MemWrite                 9823     14.30%     98.85% # attempts to use FU when none available (Count)
system.cpu1.statFuBusy::FloatMemRead              494      0.72%     99.57% # attempts to use FU when none available (Count)
system.cpu1.statFuBusy::FloatMemWrite             294      0.43%    100.00% # attempts to use FU when none available (Count)
system.cpu1.statFuBusy::IprAccess                   0      0.00%    100.00% # attempts to use FU when none available (Count)
system.cpu1.statFuBusy::InstPrefetch                0      0.00%    100.00% # attempts to use FU when none available (Count)
system.cpu1.statIssuedInstType_0::No_OpClass        23894      0.54%      0.54% # Number of instructions issued per FU type, per thread (Count)
system.cpu1.statIssuedInstType_0::IntAlu      3400880     77.14%     77.69% # Number of instructions issued per FU type, per thread (Count)
system.cpu1.statIssuedInstType_0::IntMult          362      0.01%     77.69% # Number of instructions issued per FU type, per thread (Count)
system.cpu1.statIssuedInstType_0::IntDiv        38320      0.87%     78.56% # Number of instructions issued per FU type, per thread (Count)
system.cpu1.statIssuedInstType_0::FloatAdd        10200      0.23%     78.80% # Number of instructions issued per FU type, per thread (Count)
system.cpu1.statIssuedInstType_0::FloatCmp            0      0.00%     78.80% # Number of instructions issued per FU type, per thread (Count)
system.cpu1.statIssuedInstType_0::FloatCvt         1072      0.02%     78.82% # Number of instructions issued per FU type, per thread (Count)
system.cpu1.statIssuedInstType_0::FloatMult            0      0.00%     78.82% # Number of instructions issued per FU type, per thread (Count)
system.cpu1.statIssuedInstType_0::FloatMultAcc            0      0.00%     78.82% # Number of instructions issued per FU type, per thread (Count)
system.cpu1.statIssuedInstType_0::FloatDiv            0      0.00%     78.82% # Number of instructions issued per FU type, per thread (Count)
system.cpu1.statIssuedInstType_0::FloatMisc            0      0.00%     78.82% # Number of instructions issued per FU type, per thread (Count)
system.cpu1.statIssuedInstType_0::FloatSqrt            0      0.00%     78.82% # Number of instructions issued per FU type, per thread (Count)
system.cpu1.statIssuedInstType_0::SimdAdd         6429      0.15%     78.97% # Number of instructions issued per FU type, per thread (Count)
system.cpu1.statIssuedInstType_0::SimdAddAcc            0      0.00%     78.97% # Number of instructions issued per FU type, per thread (Count)
system.cpu1.statIssuedInstType_0::SimdAlu        14597      0.33%     79.30% # Number of instructions issued per FU type, per thread (Count)
system.cpu1.statIssuedInstType_0::SimdCmp           12      0.00%     79.30% # Number of instructions issued per FU type, per thread (Count)
system.cpu1.statIssuedInstType_0::SimdCvt        14112      0.32%     79.62% # Number of instructions issued per FU type, per thread (Count)
system.cpu1.statIssuedInstType_0::SimdMisc        13984      0.32%     79.93% # Number of instructions issued per FU type, per thread (Count)
system.cpu1.statIssuedInstType_0::SimdMult            0      0.00%     79.93% # Number of instructions issued per FU type, per thread (Count)
system.cpu1.statIssuedInstType_0::SimdMultAcc            0      0.00%     79.93% # Number of instructions issued per FU type, per thread (Count)
system.cpu1.statIssuedInstType_0::SimdShift         1766      0.04%     79.97% # Number of instructions issued per FU type, per thread (Count)
system.cpu1.statIssuedInstType_0::SimdShiftAcc            0      0.00%     79.97% # Number of instructions issued per FU type, per thread (Count)
system.cpu1.statIssuedInstType_0::SimdDiv            0      0.00%     79.97% # Number of instructions issued per FU type, per thread (Count)
system.cpu1.statIssuedInstType_0::SimdSqrt            0      0.00%     79.97% # Number of instructions issued per FU type, per thread (Count)
system.cpu1.statIssuedInstType_0::SimdFloatAdd          385      0.01%     79.98% # Number of instructions issued per FU type, per thread (Count)
system.cpu1.statIssuedInstType_0::SimdFloatAlu            0      0.00%     79.98% # Number of instructions issued per FU type, per thread (Count)
system.cpu1.statIssuedInstType_0::SimdFloatCmp            0      0.00%     79.98% # Number of instructions issued per FU type, per thread (Count)
system.cpu1.statIssuedInstType_0::SimdFloatCvt          200      0.00%     79.99% # Number of instructions issued per FU type, per thread (Count)
system.cpu1.statIssuedInstType_0::SimdFloatDiv            0      0.00%     79.99% # Number of instructions issued per FU type, per thread (Count)
system.cpu1.statIssuedInstType_0::SimdFloatMisc            0      0.00%     79.99% # Number of instructions issued per FU type, per thread (Count)
system.cpu1.statIssuedInstType_0::SimdFloatMult          201      0.00%     79.99% # Number of instructions issued per FU type, per thread (Count)
system.cpu1.statIssuedInstType_0::SimdFloatMultAcc            0      0.00%     79.99% # Number of instructions issued per FU type, per thread (Count)
system.cpu1.statIssuedInstType_0::SimdFloatSqrt            0      0.00%     79.99% # Number of instructions issued per FU type, per thread (Count)
system.cpu1.statIssuedInstType_0::SimdReduceAdd            0      0.00%     79.99% # Number of instructions issued per FU type, per thread (Count)
system.cpu1.statIssuedInstType_0::SimdReduceAlu            0      0.00%     79.99% # Number of instructions issued per FU type, per thread (Count)
system.cpu1.statIssuedInstType_0::SimdReduceCmp            0      0.00%     79.99% # Number of instructions issued per FU type, per thread (Count)
system.cpu1.statIssuedInstType_0::SimdFloatReduceAdd            0      0.00%     79.99% # Number of instructions issued per FU type, per thread (Count)
system.cpu1.statIssuedInstType_0::SimdFloatReduceCmp            0      0.00%     79.99% # Number of instructions issued per FU type, per thread (Count)
system.cpu1.statIssuedInstType_0::SimdAes            0      0.00%     79.99% # Number of instructions issued per FU type, per thread (Count)
system.cpu1.statIssuedInstType_0::SimdAesMix            0      0.00%     79.99% # Number of instructions issued per FU type, per thread (Count)
system.cpu1.statIssuedInstType_0::SimdSha1Hash            0      0.00%     79.99% # Number of instructions issued per FU type, per thread (Count)
system.cpu1.statIssuedInstType_0::SimdSha1Hash2            0      0.00%     79.99% # Number of instructions issued per FU type, per thread (Count)
system.cpu1.statIssuedInstType_0::SimdSha256Hash            0      0.00%     79.99% # Number of instructions issued per FU type, per thread (Count)
system.cpu1.statIssuedInstType_0::SimdSha256Hash2            0      0.00%     79.99% # Number of instructions issued per FU type, per thread (Count)
system.cpu1.statIssuedInstType_0::SimdShaSigma2            0      0.00%     79.99% # Number of instructions issued per FU type, per thread (Count)
system.cpu1.statIssuedInstType_0::SimdShaSigma3            0      0.00%     79.99% # Number of instructions issued per FU type, per thread (Count)
system.cpu1.statIssuedInstType_0::SimdPredAlu            0      0.00%     79.99% # Number of instructions issued per FU type, per thread (Count)
system.cpu1.statIssuedInstType_0::MemRead       608362     13.80%     93.79% # Number of instructions issued per FU type, per thread (Count)
system.cpu1.statIssuedInstType_0::MemWrite       235705      5.35%     99.14% # Number of instructions issued per FU type, per thread (Count)
system.cpu1.statIssuedInstType_0::FloatMemRead        22091      0.50%     99.64% # Number of instructions issued per FU type, per thread (Count)
system.cpu1.statIssuedInstType_0::FloatMemWrite        15875      0.36%    100.00% # Number of instructions issued per FU type, per thread (Count)
system.cpu1.statIssuedInstType_0::IprAccess            0      0.00%    100.00% # Number of instructions issued per FU type, per thread (Count)
system.cpu1.statIssuedInstType_0::InstPrefetch            0      0.00%    100.00% # Number of instructions issued per FU type, per thread (Count)
system.cpu1.statIssuedInstType_0::total       4408447                       # Number of instructions issued per FU type, per thread (Count)
system.cpu1.issueRate                        0.473970                       # Inst issue rate ((Count/Cycle))
system.cpu1.fuBusy                              68702                       # FU busy when requested (Count)
system.cpu1.fuBusyRate                       0.015584                       # FU busy rate (busy events/executed inst) ((Count/Count))
system.cpu1.intInstQueueReads                16870742                       # Number of integer instruction queue reads (Count)
system.cpu1.intInstQueueWrites                5543912                       # Number of integer instruction queue writes (Count)
system.cpu1.intInstQueueWakeupAccesses        4263866                       # Number of integer instruction queue wakeup accesses (Count)
system.cpu1.fpInstQueueReads                   210636                       # Number of floating instruction queue reads (Count)
system.cpu1.fpInstQueueWrites                  144385                       # Number of floating instruction queue writes (Count)
system.cpu1.fpInstQueueWakeupAccesses          101415                       # Number of floating instruction queue wakeup accesses (Count)
system.cpu1.vecInstQueueReads                       0                       # Number of vector instruction queue reads (Count)
system.cpu1.vecInstQueueWrites                      0                       # Number of vector instruction queue writes (Count)
system.cpu1.vecInstQueueWakeupAccesses              0                       # Number of vector instruction queue wakeup accesses (Count)
system.cpu1.intAluAccesses                    4347417                       # Number of integer alu accesses (Count)
system.cpu1.fpAluAccesses                      105838                       # Number of floating point alu accesses (Count)
system.cpu1.vecAluAccesses                          0                       # Number of vector alu accesses (Count)
system.cpu1.numInsts                          4386072                       # Number of executed instructions (Count)
system.cpu1.numLoadInsts                       625833                       # Number of load instructions executed (Count)
system.cpu1.numSquashedInsts                    22375                       # Number of squashed instructions skipped in execute (Count)
system.cpu1.numSwp                                  0                       # Number of swp insts executed (Count)
system.cpu1.numNop                                  0                       # Number of nop insts executed (Count)
system.cpu1.numRefs                            875316                       # Number of memory reference insts executed (Count)
system.cpu1.numBranches                        372985                       # Number of branches executed (Count)
[...]
system.ruby.network.ext_out_link_utilization      8238829                       (Unspecified)
system.ruby.network.flit_network_latency |267483915500                       |343506189000                       | 42374058000                       (Unspecified)
system.ruby.network.flit_queueing_latency |  4832175000                       |  3910907500                       |   306850500                       (Unspecified)
system.ruby.network.flits_injected       |     2681558     32.55%     32.55% |     4943570     60.00%     92.55% |      613701      7.45%    100.00% (Unspecified)
system.ruby.network.flits_injected::total      8238829                       (Unspecified)
system.ruby.network.flits_received       |     2681558     32.55%     32.55% |     4943570     60.00%     92.55% |      613701      7.45%    100.00% (Unspecified)
system.ruby.network.flits_received::total      8238829                       (Unspecified)
system.ruby.network.int_link_utilization     19949467                       (Unspecified)
system.ruby.network.packet_network_latency |134748929500                       |119376734500                       | 42374058000                       (Unspecified)
system.ruby.network.packet_queueing_latency |  2998331000                       |  1037319500                       |   306850500                       (Unspecified)
system.ruby.network.packets_injected     |     1472738     41.38%     41.38% |     1472954     41.38%     82.76% |      613701     17.24%    100.00% (Unspecified)
system.ruby.network.packets_injected::total      3559393                       (Unspecified)
system.ruby.network.packets_received     |     1472738     41.38%     41.38% |     1472954     41.38%     82.76% |      613701     17.24%    100.00% (Unspecified)
system.ruby.network.packets_received::total      3559393                       (Unspecified)
system.ruby.network.routers00.Var_1                 2                       (Unspecified)
system.ruby.network.routers00.Var_2              2740                       (Unspecified)
system.ruby.network.routers00.Var_3              7017                       (Unspecified)
system.ruby.network.routers00.all_counts        54687                       (Unspecified)
system.ruby.network.routers00.buffer_reads      1063777                       (Unspecified)
system.ruby.network.routers00.buffer_writes      1063777                       (Unspecified)
system.ruby.network.routers00.crossbar_activity      1063777                       (Unspecified)
system.ruby.network.routers00.detour_counts         3471                       (Unspecified)
system.ruby.network.routers00.regular_var            0                       (Unspecified)
system.ruby.network.routers00.risk_counts         7036                       (Unspecified)
system.ruby.network.routers00.sw_input_arbiter_activity      1068033                       (Unspecified)
system.ruby.network.routers00.sw_output_arbiter_activity      1063777                       (Unspecified)
system.ruby.network.routers01.Var_1                 3                       (Unspecified)
system.ruby.network.routers01.Var_2              2732                       (Unspecified)
system.ruby.network.routers01.Var_3             10228                       (Unspecified)
system.ruby.network.routers01.all_counts        53218                       (Unspecified)
system.ruby.network.routers01.buffer_reads      1536510                       (Unspecified)
system.ruby.network.routers01.buffer_writes      1536510                       (Unspecified)
system.ruby.network.routers01.crossbar_activity      1536510                       (Unspecified)
system.ruby.network.routers01.detour_counts         5090                       (Unspecified)
system.ruby.network.routers01.regular_var            0                       (Unspecified)
system.ruby.network.routers01.risk_counts        10258                       (Unspecified)
system.ruby.network.routers01.sw_input_arbiter_activity      1553149                       (Unspecified)
system.ruby.network.routers01.sw_output_arbiter_activity      1536510                       (Unspecified)
system.ruby.network.routers02.Var_1                 3                       (Unspecified)
system.ruby.network.routers02.Var_2              2800                       (Unspecified)
system.ruby.network.routers02.Var_3             10483                       (Unspecified)
system.ruby.network.routers02.all_counts        53225                       (Unspecified)
system.ruby.network.routers02.buffer_reads      1725727                       (Unspecified)
system.ruby.network.routers02.buffer_writes      1725727                       (Unspecified)
system.ruby.network.routers02.crossbar_activity      1725727                       (Unspecified)
system.ruby.network.routers02.detour_counts         5302                       (Unspecified)
system.ruby.network.routers02.regular_var            0                       (Unspecified)
system.ruby.network.routers02.risk_counts        10515                       (Unspecified)
system.ruby.network.routers02.sw_input_arbiter_activity      1736064                       (Unspecified)
system.ruby.network.routers02.sw_output_arbiter_activity      1725727                       (Unspecified)
system.ruby.network.routers03.Var_1                 1                       (Unspecified)
system.ruby.network.routers03.Var_2              2827                       (Unspecified)
system.ruby.network.routers03.Var_3              7370                       (Unspecified)
system.ruby.network.routers03.all_counts        54720                       (Unspecified)
system.ruby.network.routers03.buffer_reads      1170071                       (Unspecified)
system.ruby.network.routers03.buffer_writes      1170071                       (Unspecified)
system.ruby.network.routers03.crossbar_activity      1170071                       (Unspecified)
system.ruby.network.routers03.detour_counts         3737                       (Unspecified)
system.ruby.network.routers03.regular_var            0                       (Unspecified)
system.ruby.network.routers03.risk_counts         7387                       (Unspecified)
system.ruby.network.routers03.sw_input_arbiter_activity      1175164                       (Unspecified)
system.ruby.network.routers03.sw_output_arbiter_activity      1170071                       (Unspecified)
system.ruby.network.routers04.Var_1                 3                       (Unspecified)
system.ruby.network.routers04.Var_2              2770                       (Unspecified)
system.ruby.network.routers04.Var_3             10751                       (Unspecified)
system.ruby.network.routers04.all_counts        53241                       (Unspecified)
system.ruby.network.routers04.buffer_reads      1390458                       (Unspecified)
system.ruby.network.routers04.buffer_writes      1390458                       (Unspecified)
system.ruby.network.routers04.crossbar_activity      1390458                       (Unspecified)
system.ruby.network.routers04.detour_counts         5340                       (Unspecified)
system.ruby.network.routers04.regular_var            0                       (Unspecified)
system.ruby.network.routers04.risk_counts        10766                       (Unspecified)
system.ruby.network.routers04.sw_input_arbiter_activity      1400117                       (Unspecified)
system.ruby.network.routers04.sw_output_arbiter_activity      1390458                       (Unspecified)
system.ruby.network.routers05.Var_1               157                       (Unspecified)
system.ruby.network.routers05.Var_2             15691                       (Unspecified)
system.ruby.network.routers05.Var_3             60295                       (Unspecified)
system.ruby.network.routers05.all_counts       227264                       (Unspecified)
system.ruby.network.routers05.buffer_reads      2695616                       (Unspecified)
system.ruby.network.routers05.buffer_writes      2695616                       (Unspecified)
system.ruby.network.routers05.crossbar_activity      2695616                       (Unspecified)
system.ruby.network.routers05.detour_counts        30272                       (Unspecified)
system.ruby.network.routers05.regular_var            0                       (Unspecified)
system.ruby.network.routers05.risk_counts        60427                       (Unspecified)
system.ruby.network.routers05.sw_input_arbiter_activity      2714070                       (Unspecified)
system.ruby.network.routers05.sw_output_arbiter_activity      2695616                       (Unspecified)
system.ruby.network.routers06.Var_1                94                       (Unspecified)
system.ruby.network.routers06.Var_2             14863                       (Unspecified)
system.ruby.network.routers06.Var_3             67276                       (Unspecified)
system.ruby.network.routers06.all_counts       228996                       (Unspecified)
system.ruby.network.routers06.buffer_reads      2934094                       (Unspecified)
system.ruby.network.routers06.buffer_writes      2934094                       (Unspecified)
system.ruby.network.routers06.crossbar_activity      2934094                       (Unspecified)
system.ruby.network.routers06.detour_counts        33779                       (Unspecified)
system.ruby.network.routers06.regular_var            0                       (Unspecified)
system.ruby.network.routers06.risk_counts        67385                       (Unspecified)
system.ruby.network.routers06.sw_input_arbiter_activity      2953191                       (Unspecified)
system.ruby.network.routers06.sw_output_arbiter_activity      2934094                       (Unspecified)
system.ruby.network.routers07.Var_1                22                       (Unspecified)
system.ruby.network.routers07.Var_2             14958                       (Unspecified)
system.ruby.network.routers07.Var_3             50038                       (Unspecified)
system.ruby.network.routers07.all_counts       221559                       (Unspecified)
system.ruby.network.routers07.buffer_reads      2196268                       (Unspecified)
system.ruby.network.routers07.buffer_writes      2196268                       (Unspecified)
system.ruby.network.routers07.crossbar_activity      2196268                       (Unspecified)
system.ruby.network.routers07.detour_counts        25144                       (Unspecified)
system.ruby.network.routers07.regular_var            1                       (Unspecified)
system.ruby.network.routers07.risk_counts        50161                       (Unspecified)
system.ruby.network.routers07.sw_input_arbiter_activity      2207488                       (Unspecified)
system.ruby.network.routers07.sw_output_arbiter_activity      2196268                       (Unspecified)
system.ruby.network.routers08.Var_1                 4                       (Unspecified)
system.ruby.network.routers08.Var_2              2784                       (Unspecified)
system.ruby.network.routers08.Var_3             10947                       (Unspecified)
system.ruby.network.routers08.all_counts        54697                       (Unspecified)
system.ruby.network.routers08.buffer_reads      1305840                       (Unspecified)
system.ruby.network.routers08.buffer_writes      1305840                       (Unspecified)
system.ruby.network.routers08.crossbar_activity      1305840                       (Unspecified)
system.ruby.network.routers08.detour_counts         5510                       (Unspecified)
system.ruby.network.routers08.regular_var            0                       (Unspecified)
system.ruby.network.routers08.risk_counts        10958                       (Unspecified)
system.ruby.network.routers08.sw_input_arbiter_activity      1314717                       (Unspecified)
system.ruby.network.routers08.sw_output_arbiter_activity      1305840                       (Unspecified)
system.ruby.network.routers09.Var_1                74                       (Unspecified)
system.ruby.network.routers09.Var_2             15531                       (Unspecified)
system.ruby.network.routers09.Var_3             61569                       (Unspecified)
system.ruby.network.routers09.all_counts       225414                       (Unspecified)
system.ruby.network.routers09.buffer_reads      2577121                       (Unspecified)
system.ruby.network.routers09.buffer_writes      2577121                       (Unspecified)
system.ruby.network.routers09.crossbar_activity      2577121                       (Unspecified)
system.ruby.network.routers09.detour_counts        30818                       (Unspecified)
system.ruby.network.routers09.regular_var            1                       (Unspecified)
system.ruby.network.routers09.risk_counts        61684                       (Unspecified)
system.ruby.network.routers09.sw_input_arbiter_activity      2594960                       (Unspecified)
system.ruby.network.routers09.sw_output_arbiter_activity      2577121                       (Unspecified)
system.ruby.network.routers10.Var_1                16                       (Unspecified)
system.ruby.network.routers10.Var_2             14607                       (Unspecified)
system.ruby.network.routers10.Var_3             66959                       (Unspecified)
system.ruby.network.routers10.all_counts       226321                       (Unspecified)
system.ruby.network.routers10.buffer_reads      2776093                       (Unspecified)
system.ruby.network.routers10.buffer_writes      2776093                       (Unspecified)
system.ruby.network.routers10.crossbar_activity      2776093                       (Unspecified)
system.ruby.network.routers10.detour_counts        33623                       (Unspecified)
system.ruby.network.routers10.regular_var            2                       (Unspecified)
system.ruby.network.routers10.risk_counts        67118                       (Unspecified)
system.ruby.network.routers10.sw_input_arbiter_activity      2794983                       (Unspecified)
system.ruby.network.routers10.sw_output_arbiter_activity      2776093                       (Unspecified)
system.ruby.network.routers11.Var_1                10                       (Unspecified)
system.ruby.network.routers11.Var_2             14093                       (Unspecified)
system.ruby.network.routers11.Var_3             49205                       (Unspecified)
system.ruby.network.routers11.all_counts       221032                       (Unspecified)
system.ruby.network.routers11.buffer_reads      2113199                       (Unspecified)
system.ruby.network.routers11.buffer_writes      2113199                       (Unspecified)
system.ruby.network.routers11.crossbar_activity      2113199                       (Unspecified)
system.ruby.network.routers11.detour_counts        24599                       (Unspecified)
system.ruby.network.routers11.regular_var            0                       (Unspecified)
system.ruby.network.routers11.risk_counts        49315                       (Unspecified)
system.ruby.network.routers11.sw_input_arbiter_activity      2124198                       (Unspecified)
system.ruby.network.routers11.sw_output_arbiter_activity      2113199                       (Unspecified)
system.ruby.network.routers12.Var_1                 2                       (Unspecified)
system.ruby.network.routers12.Var_2              2763                       (Unspecified)
system.ruby.network.routers12.Var_3              6934                       (Unspecified)
system.ruby.network.routers12.all_counts        53211                       (Unspecified)
system.ruby.network.routers12.buffer_reads       805928                       (Unspecified)
system.ruby.network.routers12.buffer_writes       805928                       (Unspecified)
system.ruby.network.routers12.crossbar_activity       805928                       (Unspecified)
system.ruby.network.routers12.detour_counts         3430                       (Unspecified)
system.ruby.network.routers12.regular_var            0                       (Unspecified)
system.ruby.network.routers12.risk_counts         6945                       (Unspecified)
system.ruby.network.routers12.sw_input_arbiter_activity       810269                       (Unspecified)
system.ruby.network.routers12.sw_output_arbiter_activity       805928                       (Unspecified)
system.ruby.network.routers13.Var_1                 4                       (Unspecified)
system.ruby.network.routers13.Var_2              2756                       (Unspecified)
system.ruby.network.routers13.Var_3             10546                       (Unspecified)
system.ruby.network.routers13.all_counts        54687                       (Unspecified)
system.ruby.network.routers13.buffer_reads      1383075                       (Unspecified)
system.ruby.network.routers13.buffer_writes      1383075                       (Unspecified)
system.ruby.network.routers13.crossbar_activity      1383075                       (Unspecified)
system.ruby.network.routers13.detour_counts         5221                       (Unspecified)
system.ruby.network.routers13.regular_var            0                       (Unspecified)
system.ruby.network.routers13.risk_counts        10569                       (Unspecified)
system.ruby.network.routers13.sw_input_arbiter_activity      1393153                       (Unspecified)
system.ruby.network.routers13.sw_output_arbiter_activity      1383075                       (Unspecified)
system.ruby.network.routers14.Var_1                 5                       (Unspecified)
system.ruby.network.routers14.Var_2              2780                       (Unspecified)
system.ruby.network.routers14.Var_3             10455                       (Unspecified)
system.ruby.network.routers14.all_counts        53211                       (Unspecified)
system.ruby.network.routers14.buffer_reads      1452739                       (Unspecified)
system.ruby.network.routers14.buffer_writes      1452739                       (Unspecified)
system.ruby.network.routers14.crossbar_activity      1452739                       (Unspecified)
system.ruby.network.routers14.detour_counts         5294                       (Unspecified)
system.ruby.network.routers14.regular_var            0                       (Unspecified)
system.ruby.network.routers14.risk_counts        10488                       (Unspecified)
system.ruby.network.routers14.sw_input_arbiter_activity      1462276                       (Unspecified)
system.ruby.network.routers14.sw_output_arbiter_activity      1452739                       (Unspecified)
system.ruby.network.routers15.Var_1                 1                       (Unspecified)
system.ruby.network.routers15.Var_2              2780                       (Unspecified)
system.ruby.network.routers15.Var_3              7127                       (Unspecified)
system.ruby.network.routers15.all_counts        53206                       (Unspecified)
system.ruby.network.routers15.buffer_reads      1061780                       (Unspecified)
system.ruby.network.routers15.buffer_writes      1061780                       (Unspecified)
system.ruby.network.routers15.crossbar_activity      1061780                       (Unspecified)
system.ruby.network.routers15.detour_counts         3599                       (Unspecified)
system.ruby.network.routers15.regular_var            0                       (Unspecified)
system.ruby.network.routers15.risk_counts         7150                       (Unspecified)
system.ruby.network.routers15.sw_input_arbiter_activity      1066442                       (Unspecified)
system.ruby.network.routers15.sw_output_arbiter_activity      1061780                       (Unspecified)

---------- End Simulation Statistics   ----------
