
---------- Begin Simulation Statistics ----------
simSeconds                                   0.006572                       # Number of seconds simulated (Second)
simTicks                                   6571705500                       # Number of ticks simulated (Tick)
finalTick                                  6571705500                       # Number of ticks from beginning of simulation (restored from checkpoints and never reset) (Tick)
simFreq                                  1000000000000                       # The number of ticks per simulated second ((Tick/Second))
hostSeconds                                   1419.37                       # Real time elapsed on the host (Second)
hostTickRate                                  4630022                       # The number of ticks simulated per host second (ticks/s) ((Tick/Second))
hostMemory                                   11405996                       # Number of bytes of host memory used (Byte)
simInsts                                    147525052                       # Number of instructions simulated (Count)
simOps                                      233763148                       # Number of ops (including micro ops) simulated (Count)
hostInstRate                                   103937                       # Simulator instruction rate (inst/s) ((Count/Second))
hostOpRate                                     164695                       # Simulator op (including micro ops) rate (op/s) ((Count/Second))
system.clk_domain.clock                          1000                       # Clock period in ticks (Tick)
system.cpu0.numCycles                        13143412                       # Number of cpu cycles simulated (Cycle)
system.cpu0.numWorkItemsStarted                     0                       # Number of work items this cpu started (Count)
system.cpu0.numWorkItemsCompleted                   0                       # Number of work items this cpu completed (Count)
system.cpu0.instsAdded                       14955130                       # Number of instructions added to the IQ (excludes non-spec) (Count)
system.cpu0.nonSpecInstsAdded                     881                       # Number of non-speculative instructions added to the IQ (Count)
system.cpu0.instsIssued                      14362271                       # Number of instructions issued (Count)
system.cpu0.squashedInstsIssued                  2796                       # Number of squashed instructions issued (Count)
system.cpu0.squashedInstsExamined             1472500                       # Number of squashed instructions iterated over during squash; mainly for profiling (Count)
system.cpu0.squashedOperandsExamined          3092570                       # Number of squashed operands that are examined and possibly removed from graph (Count)
system.cpu0.squashedNonSpecRemoved                148                       # Number of squashed non-spec instructions that were removed (Count)
system.cpu0.numIssuedDist::samples           12078298                       # Number of insts issued each cycle (Count)
system.cpu0.numIssuedDist::mean              1.189097                       # Number of insts issued each cycle (Count)
system.cpu0.numIssuedDist::stdev             1.759265                       # Number of insts issued each cycle (Count)
system.cpu0.numIssuedDist::underflows               0      0.00%      0.00% # Number of insts issued each cycle (Count)
system.cpu0.numIssuedDist::0                  7487490     61.99%     61.99% # Number of insts issued each cycle (Count)
system.cpu0.numIssuedDist::1                   450246      3.73%     65.72% # Number of insts issued each cycle (Count)
system.cpu0.numIssuedDist::2                  1246807     10.32%     76.04% # Number of insts issued each cycle (Count)
system.cpu0.numIssuedDist::3                  1370881     11.35%     87.39% # Number of insts issued each cycle (Count)
system.cpu0.numIssuedDist::4                   791356      6.55%     93.94% # Number of insts issued each cycle (Count)
system.cpu0.numIssuedDist::5                   418725      3.47%     97.41% # Number of insts issued each cycle (Count)
system.cpu0.numIssuedDist::6                   185513      1.54%     98.95% # Number of insts issued each cycle (Count)
system.cpu0.numIssuedDist::7                    84599      0.70%     99.65% # Number of insts issued each cycle (Count)
system.cpu0.numIssuedDist::8                    42681      0.35%    100.00% # Number of insts issued each cycle (Count)
system.cpu0.numIssuedDist::overflows                0      0.00%    100.00% # Number of insts issued each cycle (Count)
system.cpu0.numIssuedDist::min_value                0                       # Number of insts issued each cycle (Count)
system.cpu0.numIssuedDist::max_value                8                       # Number of insts issued each cycle (Count)
system.cpu0.numIssuedDist::total             12078298                       # Number of insts issued each cycle (Count)
system.cpu0.statFuBusy::No_OpClass                  0      0.00%      0.00% # attempts to use FU when none available (Count)
system.cpu0.statFuBusy::IntAlu                  55994     71.77%     71.77% # attempts to use FU when none available (Count)
system.cpu0.statFuBusy::IntMult                     0      0.00%     71.77% # attempts to use FU when none available (Count)
system.cpu0.statFuBusy::IntDiv                      0      0.00%     71.77% # attempts to use FU when none available (Count)
system.cpu0.statFuBusy::FloatAdd                    0      0.00%     71.77% # attempts to use FU when none available (Count)
system.cpu0.statFuBusy::FloatCmp                    0      0.00%     71.77% # attempts to use FU when none available (Count)
system.cpu0.statFuBusy::FloatCvt                    1      0.00%     71.77% # attempts to use FU when none available (Count)
system.cpu0.statFuBusy::FloatMult                   0      0.00%     71.77% # attempts to use FU when none available (Count)
system.cpu0.statFuBusy::FloatMultAcc                0      0.00%     71.77% # attempts to use FU when none available (Count)
system.cpu0.statFuBusy::FloatDiv                    0      0.00%     71.77% # attempts to use FU when none available (Count)
system.cpu0.statFuBusy::FloatMisc                   0      0.00%     71.77% # attempts to use FU when none available (Count)
system.cpu0.statFuBusy::FloatSqrt                   0      0.00%     71.77% # attempts to use FU when none available (Count)
system.cpu0.statFuBusy::SimdAdd                     0      0.00%     71.77% # attempts to use FU when none available (Count)
system.cpu0.statFuBusy::SimdAddAcc                  0      0.00%     71.77% # attempts to use FU when none available (Count)
system.cpu0.statFuBusy::SimdAlu                   123      0.16%     71.92% # attempts to use FU when none available (Count)
system.cpu0.statFuBusy::SimdCmp                     0      0.00%     71.92% # attempts to use FU when none available (Count)
system.cpu0.statFuBusy::SimdCvt                   169      0.22%     72.14% # attempts to use FU when none available (Count)
system.cpu0.statFuBusy::SimdMisc                    0      0.00%     72.14% # attempts to use FU when none available (Count)
system.cpu0.statFuBusy::SimdMult                    0      0.00%     72.14% # attempts to use FU when none available (Count)
system.cpu0.statFuBusy::SimdMultAcc                 0      0.00%     72.14% # attempts to use FU when none available (Count)
system.cpu0.statFuBusy::SimdShift                 205      0.26%     72.40% # attempts to use FU when none available (Count)
system.cpu0.statFuBusy::SimdShiftAcc                0      0.00%     72.40% # attempts to use FU when none available (Count)
system.cpu0.statFuBusy::SimdDiv                     0      0.00%     72.40% # attempts to use FU when none available (Count)
system.cpu0.statFuBusy::SimdSqrt                    0      0.00%     72.40% # attempts to use FU when none available (Count)
system.cpu0.statFuBusy::SimdFloatAdd                0      0.00%     72.40% # attempts to use FU when none available (Count)
system.cpu0.statFuBusy::SimdFloatAlu                0      0.00%     72.40% # attempts to use FU when none available (Count)
system.cpu0.statFuBusy::SimdFloatCmp                0      0.00%     72.40% # attempts to use FU when none available (Count)
system.cpu0.statFuBusy::SimdFloatCvt                0      0.00%     72.40% # attempts to use FU when none available (Count)
system.cpu0.statFuBusy::SimdFloatDiv                0      0.00%     72.40% # attempts to use FU when none available (Count)
system.cpu0.statFuBusy::SimdFloatMisc               0      0.00%     72.40% # attempts to use FU when none available (Count)
system.cpu0.statFuBusy::SimdFloatMult               0      0.00%     72.40% # attempts to use FU when none available (Count)
system.cpu0.statFuBusy::SimdFloatMultAcc            0      0.00%     72.40% # attempts to use FU when none available (Count)
system.cpu0.statFuBusy::SimdFloatSqrt               0      0.00%     72.40% # attempts to use FU when none available (Count)
system.cpu0.statFuBusy::SimdReduceAdd               0      0.00%     72.40% # attempts to use FU when none available (Count)
system.cpu0.statFuBusy::SimdReduceAlu               0      0.00%     72.40% # attempts to use FU when none available (Count)
system.cpu0.statFuBusy::SimdReduceCmp               0      0.00%     72.40% # attempts to use FU when none available (Count)
system.cpu0.statFuBusy::SimdFloatReduceAdd            0      0.00%     72.40% # attempts to use FU when none available (Count)
system.cpu0.statFuBusy::SimdFloatReduceCmp            0      0.00%     72.40% # attempts to use FU when none available (Count)
system.cpu0.statFuBusy::SimdAes                     0      0.00%     72.40% # attempts to use FU when none available (Count)
system.cpu0.statFuBusy::SimdAesMix                  0      0.00%     72.40% # attempts to use FU when none available (Count)
system.cpu0.statFuBusy::SimdSha1Hash                0      0.00%     72.40% # attempts to use FU when none available (Count)
system.cpu0.statFuBusy::SimdSha1Hash2               0      0.00%     72.40% # attempts to use FU when none available (Count)
system.cpu0.statFuBusy::SimdSha256Hash              0      0.00%     72.40% # attempts to use FU when none available (Count)
system.cpu0.statFuBusy::SimdSha256Hash2             0      0.00%     72.40% # attempts to use FU when none available (Count)
system.cpu0.statFuBusy::SimdShaSigma2               0      0.00%     72.40% # attempts to use FU when none available (Count)
system.cpu0.statFuBusy::SimdShaSigma3               0      0.00%     72.40% # attempts to use FU when none available (Count)
system.cpu0.statFuBusy::SimdPredAlu                 0      0.00%     72.40% # attempts to use FU when none available (Count)
system.cpu0.statFuBusy::MemRead                 12046     15.44%     87.84% # attempts to use FU when none available (Count)
system.cpu0.statFuBusy::MemWrite                 7682      9.85%     97.69% # attempts to use FU when none available (Count)
system.cpu0.statFuBusy::FloatMemRead             1343      1.72%     99.41% # attempts to use FU when none available (Count)
system.cpu0.statFuBusy::FloatMemWrite             461      0.59%    100.00% # attempts to use FU when none available (Count)
system.cpu0.statFuBusy::IprAccess                   0      0.00%    100.00% # attempts to use FU when none available (Count)
system.cpu0.statFuBusy::InstPrefetch                0      0.00%    100.00% # attempts to use FU when none available (Count)
system.cpu0.statIssuedInstType_0::No_OpClass        70598      0.49%      0.49% # Number of instructions issued per FU type, per thread (Count)
system.cpu0.statIssuedInstType_0::IntAlu     13087837     91.13%     91.62% # Number of instructions issued per FU type, per thread (Count)
system.cpu0.statIssuedInstType_0::IntMult           35      0.00%     91.62% # Number of instructions issued per FU type, per thread (Count)
system.cpu0.statIssuedInstType_0::IntDiv        38430      0.27%     91.89% # Number of instructions issued per FU type, per thread (Count)
system.cpu0.statIssuedInstType_0::FloatAdd         4221      0.03%     91.92% # Number of instructions issued per FU type, per thread (Count)
system.cpu0.statIssuedInstType_0::FloatCmp            0      0.00%     91.92% # Number of instructions issued per FU type, per thread (Count)
system.cpu0.statIssuedInstType_0::FloatCvt         1440      0.01%     91.93% # Number of instructions issued per FU type, per thread (Count)
system.cpu0.statIssuedInstType_0::FloatMult            0      0.00%     91.93% # Number of instructions issued per FU type, per thread (Count)
system.cpu0.statIssuedInstType_0::FloatMultAcc            0      0.00%     91.93% # Number of instructions issued per FU type, per thread (Count)
system.cpu0.statIssuedInstType_0::FloatDiv            0      0.00%     91.93% # Number of instructions issued per FU type, per thread (Count)
system.cpu0.statIssuedInstType_0::FloatMisc            0      0.00%     91.93% # Number of instructions issued per FU type, per thread (Count)
system.cpu0.statIssuedInstType_0::FloatSqrt            0      0.00%     91.93% # Number of instructions issued per FU type, per thread (Count)
system.cpu0.statIssuedInstType_0::SimdAdd         8420      0.06%     91.98% # Number of instructions issued per FU type, per thread (Count)
system.cpu0.statIssuedInstType_0::SimdAddAcc            0      0.00%     91.98% # Number of instructions issued per FU type, per thread (Count)
system.cpu0.statIssuedInstType_0::SimdAlu        17041      0.12%     92.10% # Number of instructions issued per FU type, per thread (Count)
system.cpu0.statIssuedInstType_0::SimdCmp            0      0.00%     92.10% # Number of instructions issued per FU type, per thread (Count)
system.cpu0.statIssuedInstType_0::SimdCvt        18648      0.13%     92.23% # Number of instructions issued per FU type, per thread (Count)
system.cpu0.statIssuedInstType_0::SimdMisc         8837      0.06%     92.29% # Number of instructions issued per FU type, per thread (Count)
system.cpu0.statIssuedInstType_0::SimdMult            0      0.00%     92.29% # Number of instructions issued per FU type, per thread (Count)
system.cpu0.statIssuedInstType_0::SimdMultAcc            0      0.00%     92.29% # Number of instructions issued per FU type, per thread (Count)
system.cpu0.statIssuedInstType_0::SimdShift         2901      0.02%     92.31% # Number of instructions issued per FU type, per thread (Count)
system.cpu0.statIssuedInstType_0::SimdShiftAcc            0      0.00%     92.31% # Number of instructions issued per FU type, per thread (Count)
system.cpu0.statIssuedInstType_0::SimdDiv            0      0.00%     92.31% # Number of instructions issued per FU type, per thread (Count)
system.cpu0.statIssuedInstType_0::SimdSqrt            0      0.00%     92.31% # Number of instructions issued per FU type, per thread (Count)
system.cpu0.statIssuedInstType_0::SimdFloatAdd            0      0.00%     92.31% # Number of instructions issued per FU type, per thread (Count)
system.cpu0.statIssuedInstType_0::SimdFloatAlu            0      0.00%     92.31% # Number of instructions issued per FU type, per thread (Count)
system.cpu0.statIssuedInstType_0::SimdFloatCmp            0      0.00%     92.31% # Number of instructions issued per FU type, per thread (Count)
system.cpu0.statIssuedInstType_0::SimdFloatCvt            0      0.00%     92.31% # Number of instructions issued per FU type, per thread (Count)
system.cpu0.statIssuedInstType_0::SimdFloatDiv            0      0.00%     92.31% # Number of instructions issued per FU type, per thread (Count)
system.cpu0.statIssuedInstType_0::SimdFloatMisc            0      0.00%     92.31% # Number of instructions issued per FU type, per thread (Count)
system.cpu0.statIssuedInstType_0::SimdFloatMult            0      0.00%     92.31% # Number of instructions issued per FU type, per thread (Count)
system.cpu0.statIssuedInstType_0::SimdFloatMultAcc            0      0.00%     92.31% # Number of instructions issued per FU type, per thread (Count)
system.cpu0.statIssuedInstType_0::SimdFloatSqrt            0      0.00%     92.31% # Number of instructions issued per FU type, per thread (Count)
system.cpu0.statIssuedInstType_0::SimdReduceAdd            0      0.00%     92.31% # Number of instructions issued per FU type, per thread (Count)
system.cpu0.statIssuedInstType_0::SimdReduceAlu            0      0.00%     92.31% # Number of instructions issued per FU type, per thread (Count)
system.cpu0.statIssuedInstType_0::SimdReduceCmp            0      0.00%     92.31% # Number of instructions issued per FU type, per thread (Count)
system.cpu0.statIssuedInstType_0::SimdFloatReduceAdd            0      0.00%     92.31% # Number of instructions issued per FU type, per thread (Count)
system.cpu0.statIssuedInstType_0::SimdFloatReduceCmp            0      0.00%     92.31% # Number of instructions issued per FU type, per thread (Count)
system.cpu0.statIssuedInstType_0::SimdAes            0      0.00%     92.31% # Number of instructions issued per FU type, per thread (Count)
system.cpu0.statIssuedInstType_0::SimdAesMix            0      0.00%     92.31% # Number of instructions issued per FU type, per thread (Count)
system.cpu0.statIssuedInstType_0::SimdSha1Hash            0      0.00%     92.31% # Number of instructions issued per FU type, per thread (Count)
system.cpu0.statIssuedInstType_0::SimdSha1Hash2            0      0.00%     92.31% # Number of instructions issued per FU type, per thread (Count)
system.cpu0.statIssuedInstType_0::SimdSha256Hash            0      0.00%     92.31% # Number of instructions issued per FU type, per thread (Count)
system.cpu0.statIssuedInstType_0::SimdSha256Hash2            0      0.00%     92.31% # Number of instructions issued per FU type, per thread (Count)
system.cpu0.statIssuedInstType_0::SimdShaSigma2            0      0.00%     92.31% # Number of instructions issued per FU type, per thread (Count)
system.cpu0.statIssuedInstType_0::SimdShaSigma3            0      0.00%     92.31% # Number of instructions issued per FU type, per thread (Count)
system.cpu0.statIssuedInstType_0::SimdPredAlu            0      0.00%     92.31% # Number of instructions issued per FU type, per thread (Count)
system.cpu0.statIssuedInstType_0::MemRead       760131      5.29%     97.61% # Number of instructions issued per FU type, per thread (Count)
system.cpu0.statIssuedInstType_0::MemWrite       291804      2.03%     99.64% # Number of instructions issued per FU type, per thread (Count)
system.cpu0.statIssuedInstType_0::FloatMemRead        33690      0.23%     99.87% # Number of instructions issued per FU type, per thread (Count)
system.cpu0.statIssuedInstType_0::FloatMemWrite        18238      0.13%    100.00% # Number of instructions issued per FU type, per thread (Count)
system.cpu0.statIssuedInstType_0::IprAccess            0      0.00%    100.00% # Number of instructions issued per FU type, per thread (Count)
system.cpu0.statIssuedInstType_0::InstPrefetch            0      0.00%    100.00% # Number of instructions issued per FU type, per thread (Count)
system.cpu0.statIssuedInstType_0::total      14362271                       # Number of instructions issued per FU type, per thread (Count)
system.cpu0.issueRate                        1.092735                       # Inst issue rate ((Count/Cycle))
system.cpu0.fuBusy                              78024                       # FU busy when requested (Count)
system.cpu0.fuBusyRate                       0.005433                       # FU busy rate (busy events/executed inst) ((Count/Count))
system.cpu0.intInstQueueReads                40651931                       # Number of integer instruction queue reads (Count)
system.cpu0.intInstQueueWrites               16260368                       # Number of integer instruction queue writes (Count)
system.cpu0.intInstQueueWakeupAccesses       14162697                       # Number of integer instruction queue wakeup accesses (Count)
system.cpu0.fpInstQueueReads                   231727                       # Number of floating instruction queue reads (Count)
system.cpu0.fpInstQueueWrites                  175938                       # Number of floating instruction queue writes (Count)
system.cpu0.fpInstQueueWakeupAccesses          110871                       # Number of floating instruction queue wakeup accesses (Count)
system.cpu0.vecInstQueueReads                       0                       # Number of vector instruction queue reads (Count)
system.cpu0.vecInstQueueWrites                      0                       # Number of vector instruction queue writes (Count)
system.cpu0.vecInstQueueWakeupAccesses              0                       # Number of vector instruction queue wakeup accesses (Count)
system.cpu0.intAluAccesses                   14252827                       # Number of integer alu accesses (Count)
system.cpu0.fpAluAccesses                      116870                       # Number of floating point alu accesses (Count)
system.cpu0.vecAluAccesses                          0                       # Number of vector alu accesses (Count)
system.cpu0.numInsts                         14308172                       # Number of executed instructions (Count)
system.cpu0.numLoadInsts                       782885                       # Number of load instructions executed (Count)
system.cpu0.numSquashedInsts                    54097                       # Number of squashed instructions skipped in execute (Count)
system.cpu0.numSwp                                  0                       # Number of swp insts executed (Count)
system.cpu0.numNop                                  0                       # Number of nop insts executed (Count)
system.cpu0.numRefs                           1088753                       # Number of memory reference insts executed (Count)
system.cpu0.numBranches                        897291                       # Number of branches executed (Count)
system.cpu0.numStoreInsts                      305868                       # Number of stores executed (Count)
system.cpu0.numRate                          1.088619                       # Inst execution rate ((Count/Cycle))
system.cpu0.timesIdled                           2196                       # Number of times that the entire CPU went into an idle state and unscheduled itself (Count)
system.cpu0.idleCycles                        1065114                       # Total number of cycles that the CPU has spent unscheduled due to idling (Cycle)
system.cpu0.committedInsts                    8487560                       # Number of Instructions Simulated (Count)
system.cpu0.committedOps                     13483419                       # Number of Ops (including micro ops) Simulated (Count)
system.cpu0.cpi                              1.548550                       # CPI: Cycles Per Instruction ((Cycle/Count))
system.cpu0.totalCpi                         1.548550                       # CPI: Total CPI of All Threads ((Cycle/Count))
system.cpu0.ipc                              0.645765                       # IPC: Instructions Per Cycle ((Count/Cycle))
system.cpu0.totalIpc                         0.645765                       # IPC: Total IPC of All Threads ((Count/Cycle))
system.cpu0.intRegfileReads                  25002372                       # Number of integer regfile reads (Count)
system.cpu0.intRegfileWrites                 11725859                       # Number of integer regfile writes (Count)
system.cpu0.fpRegfileReads                     150886                       # Number of floating regfile reads (Count)
system.cpu0.fpRegfileWrites                     83679                       # Number of floating regfile writes (Count)
system.cpu0.ccRegfileReads                   16058468                       # number of cc regfile reads (Count)
system.cpu0.ccRegfileWrites                   7797035                       # number of cc regfile writes (Count)
system.cpu0.miscRegfileReads                  2929069                       # number of misc regfile reads (Count)
system.cpu0.miscRegfileWrites                     729                       # number of misc regfile writes (Count)
system.cpu0.MemDepUnit__0.insertedLoads        882149                       # Number of loads inserted to the mem dependence unit. (Count)
system.cpu0.MemDepUnit__0.insertedStores       377449                       # Number of stores inserted to the mem dependence unit. (Count)
system.cpu0.MemDepUnit__0.conflictingLoads       100675                       # Number of conflicting loads. (Count)
system.cpu0.MemDepUnit__0.conflictingStores        85467                       # Number of conflicting stores. (Count)
system.cpu0.MemDepUnit__1.insertedLoads             0                       # Number of loads inserted to the mem dependence unit. (Count)
system.cpu0.MemDepUnit__1.insertedStores            0                       # Number of stores inserted to the mem dependence unit. (Count)
system.cpu0.MemDepUnit__1.conflictingLoads            0                       # Number of conflicting loads. (Count)
system.cpu0.MemDepUnit__1.conflictingStores            0                       # Number of conflicting stores. (Count)
system.cpu0.MemDepUnit__2.insertedLoads             0                       # Number of loads inserted to the mem dependence unit. (Count)
system.cpu0.MemDepUnit__2.insertedStores            0                       # Number of stores inserted to the mem dependence unit. (Count)
system.cpu0.MemDepUnit__2.conflictingLoads            0                       # Number of conflicting loads. (Count)
system.cpu0.MemDepUnit__2.conflictingStores            0                       # Number of conflicting stores. (Count)
system.cpu0.MemDepUnit__3.insertedLoads             0                       # Number of loads inserted to the mem dependence unit. (Count)
system.cpu0.MemDepUnit__3.insertedStores            0                       # Number of stores inserted to the mem dependence unit. (Count)
system.cpu0.MemDepUnit__3.conflictingLoads            0                       # Number of conflicting loads. (Count)
system.cpu0.MemDepUnit__3.conflictingStores            0                       # Number of conflicting stores. (Count)
system.cpu0.branchPred.lookups                1048249                       # Number of BP lookups (Count)
system.cpu0.branchPred.condPredicted           983303                       # Number of conditional branches predicted (Count)
system.cpu0.branchPred.condIncorrect            21574                       # Number of conditional branches incorrect (Count)
system.cpu0.branchPred.BTBLookups              747491                       # Number of BTB lookups (Count)
system.cpu0.branchPred.BTBUpdates                9960                       # Number of BTB updates (Count)
system.cpu0.branchPred.BTBHits                 743734                       # Number of BTB hits (Count)
system.cpu0.branchPred.BTBHitRatio           0.994974                       # BTB Hit Ratio (Ratio)
system.cpu0.branchPred.RASUsed                  14722                       # Number of times the RAS was used to get a target. (Count)
system.cpu0.branchPred.RASIncorrect                 8                       # Number of incorrect RAS predictions. (Count)
system.cpu0.branchPred.indirectLookups           9492                       # Number of indirect predictor lookups. (Count)
system.cpu0.branchPred.indirectHits              5279                       # Number of indirect target hits. (Count)
system.cpu0.branchPred.indirectMisses            4213                       # Number of indirect misses. (Count)
system.cpu0.branchPred.indirectMispredicted         1114                       # Number of mispredicted indirect branches. (Count)
system.cpu0.commit.commitSquashedInsts        1463257                       # The number of squashed insts skipped by commit (Count)
system.cpu0.commit.commitNonSpecStalls            733                       # The number of times commit has been forced to stall to communicate backwards (Count)
system.cpu0.commit.branchMispredicts            22658                       # The number of times a branch was mispredicted (Count)
system.cpu0.commit.numCommittedDist::samples     11870370                       # Number of insts commited each cycle (Count)
system.cpu0.commit.numCommittedDist::mean     1.135889                       # Number of insts commited each cycle (Count)
system.cpu0.commit.numCommittedDist::stdev     2.173362                       # Number of insts commited each cycle (Count)
system.cpu0.commit.numCommittedDist::underflows            0      0.00%      0.00% # Number of insts commited each cycle (Count)
system.cpu0.commit.numCommittedDist::0        7637267     64.34%     64.34% # Number of insts commited each cycle (Count)
system.cpu0.commit.numCommittedDist::1        1630270     13.73%     78.07% # Number of insts commited each cycle (Count)
system.cpu0.commit.numCommittedDist::2         955318      8.05%     86.12% # Number of insts commited each cycle (Count)
system.cpu0.commit.numCommittedDist::3         255715      2.15%     88.28% # Number of insts commited each cycle (Count)
system.cpu0.commit.numCommittedDist::4          56316      0.47%     88.75% # Number of insts commited each cycle (Count)
system.cpu0.commit.numCommittedDist::5         533270      4.49%     93.24% # Number of insts commited each cycle (Count)
system.cpu0.commit.numCommittedDist::6          33623      0.28%     93.53% # Number of insts commited each cycle (Count)
system.cpu0.commit.numCommittedDist::7          66712      0.56%     94.09% # Number of insts commited each cycle (Count)
system.cpu0.commit.numCommittedDist::8         701879      5.91%    100.00% # Number of insts commited each cycle (Count)
system.cpu0.commit.numCommittedDist::overflows            0      0.00%    100.00% # Number of insts commited each cycle (Count)
system.cpu0.commit.numCommittedDist::min_value            0                       # Number of insts commited each cycle (Count)
system.cpu0.commit.numCommittedDist::max_value            8                       # Number of insts commited each cycle (Count)
system.cpu0.commit.numCommittedDist::total     11870370                       # Number of insts commited each cycle (Count)
system.cpu0.commit.instsCommitted             8487560                       # Number of instructions committed (Count)
system.cpu0.commit.opsCommitted              13483419                       # Number of ops (including micro ops) committed (Count)
system.cpu0.commit.memRefs                     922055                       # Number of memory references committed (Count)
system.cpu0.commit.loads                       653018                       # Number of loads committed (Count)
system.cpu0.commit.amos                             0                       # Number of atomic instructions committed (Count)
system.cpu0.commit.membars                          0                       # Number of memory barriers committed (Count)
system.cpu0.commit.branches                    847459                       # Number of branches committed (Count)
system.cpu0.commit.vectorInstructions               0                       # Number of committed Vector instructions. (Count)
system.cpu0.commit.floating                     81290                       # Number of committed floating point instructions. (Count)
system.cpu0.commit.integer                   13366074                       # Number of committed integer instructions. (Count)
system.cpu0.commit.functionCalls                10769                       # Number of function calls committed. (Count)
system.cpu0.commit.committedInstType_0::No_OpClass        62657      0.46%      0.46% # Class of committed instruction (Count)
system.cpu0.commit.committedInstType_0::IntAlu     12417601     92.10%     92.56% # Class of committed instruction (Count)
system.cpu0.commit.committedInstType_0::IntMult           29      0.00%     92.56% # Class of committed instruction (Count)
system.cpu0.commit.committedInstType_0::IntDiv        36080      0.27%     92.83% # Class of committed instruction (Count)
system.cpu0.commit.committedInstType_0::FloatAdd         3064      0.02%     92.85% # Class of committed instruction (Count)
system.cpu0.commit.committedInstType_0::FloatCmp            0      0.00%     92.85% # Class of committed instruction (Count)
system.cpu0.commit.committedInstType_0::FloatCvt         1296      0.01%     92.86% # Class of committed instruction (Count)
system.cpu0.commit.committedInstType_0::FloatMult            0      0.00%     92.86% # Class of committed instruction (Count)
system.cpu0.commit.committedInstType_0::FloatMultAcc            0      0.00%     92.86% # Class of committed instruction (Count)
system.cpu0.commit.committedInstType_0::FloatDiv            0      0.00%     92.86% # Class of committed instruction (Count)
system.cpu0.commit.committedInstType_0::FloatMisc            0      0.00%     92.86% # Class of committed instruction (Count)
system.cpu0.commit.committedInstType_0::FloatSqrt            0      0.00%     92.86% # Class of committed instruction (Count)
system.cpu0.commit.committedInstType_0::SimdAdd         6678      0.05%     92.91% # Class of committed instruction (Count)
system.cpu0.commit.committedInstType_0::SimdAddAcc            0      0.00%     92.91% # Class of committed instruction (Count)
system.cpu0.commit.committedInstType_0::SimdAlu        12106      0.09%     93.00% # Class of committed instruction (Count)
system.cpu0.commit.committedInstType_0::SimdCmp            0      0.00%     93.00% # Class of committed instruction (Count)
system.cpu0.commit.committedInstType_0::SimdCvt        13052      0.10%     93.10% # Class of committed instruction (Count)
system.cpu0.commit.committedInstType_0::SimdMisc         7088      0.05%     93.15% # Class of committed instruction (Count)
system.cpu0.commit.committedInstType_0::SimdMult            0      0.00%     93.15% # Class of committed instruction (Count)
system.cpu0.commit.committedInstType_0::SimdMultAcc            0      0.00%     93.15% # Class of committed instruction (Count)
system.cpu0.commit.committedInstType_0::SimdShift         1713      0.01%     93.16% # Class of committed instruction (Count)
system.cpu0.commit.committedInstType_0::SimdShiftAcc            0      0.00%     93.16% # Class of committed instruction (Count)
system.cpu0.commit.committedInstType_0::SimdDiv            0      0.00%     93.16% # Class of committed instruction (Count)
system.cpu0.commit.committedInstType_0::SimdSqrt            0      0.00%     93.16% # Class of committed instruction (Count)
system.cpu0.commit.committedInstType_0::SimdFloatAdd            0      0.00%     93.16% # Class of committed instruction (Count)
system.cpu0.commit.committedInstType_0::SimdFloatAlu            0      0.00%     93.16% # Class of committed instruction (Count)
system.cpu0.commit.committedInstType_0::SimdFloatCmp            0      0.00%     93.16% # Class of committed instruction (Count)
system.cpu0.commit.committedInstType_0::SimdFloatCvt            0      0.00%     93.16% # Class of committed instruction (Count)
system.cpu0.commit.committedInstType_0::SimdFloatDiv            0      0.00%     93.16% # Class of committed instruction (Count)
system.cpu0.commit.committedInstType_0::SimdFloatMisc            0      0.00%     93.16% # Class of committed instruction (Count)
system.cpu0.commit.committedInstType_0::SimdFloatMult            0      0.00%     93.16% # Class of committed instruction (Count)
system.cpu0.commit.committedInstType_0::SimdFloatMultAcc            0      0.00%     93.16% # Class of committed instruction (Count)
system.cpu0.commit.committedInstType_0::SimdFloatSqrt            0      0.00%     93.16% # Class of committed instruction (Count)
system.cpu0.commit.committedInstType_0::SimdReduceAdd            0      0.00%     93.16% # Class of committed instruction (Count)
system.cpu0.commit.committedInstType_0::SimdReduceAlu            0      0.00%     93.16% # Class of committed instruction (Count)
system.cpu0.commit.committedInstType_0::SimdReduceCmp            0      0.00%     93.16% # Class of committed instruction (Count)
system.cpu0.commit.committedInstType_0::SimdFloatReduceAdd            0      0.00%     93.16% # Class of committed instruction (Count)
system.cpu0.commit.committedInstType_0::SimdFloatReduceCmp            0      0.00%     93.16% # Class of committed instruction (Count)
system.cpu0.commit.committedInstType_0::SimdAes            0      0.00%     93.16% # Class of committed instruction (Count)
system.cpu0.commit.committedInstType_0::SimdAesMix            0      0.00%     93.16% # Class of committed instruction (Count)
system.cpu0.commit.committedInstType_0::SimdSha1Hash            0      0.00%     93.16% # Class of committed instruction (Count)
system.cpu0.commit.committedInstType_0::SimdSha1Hash2            0      0.00%     93.16% # Class of committed instruction (Count)
system.cpu0.commit.committedInstType_0::SimdSha256Hash            0      0.00%     93.16% # Class of committed instruction (Count)
system.cpu0.commit.committedInstType_0::SimdSha256Hash2            0      0.00%     93.16% # Class of committed instruction (Count)
system.cpu0.commit.committedInstType_0::SimdShaSigma2            0      0.00%     93.16% # Class of committed instruction (Count)
system.cpu0.commit.committedInstType_0::SimdShaSigma3            0      0.00%     93.16% # Class of committed instruction (Count)
system.cpu0.commit.committedInstType_0::SimdPredAlu            0      0.00%     93.16% # Class of committed instruction (Count)
system.cpu0.commit.committedInstType_0::MemRead       631761      4.69%     97.85% # Class of committed instruction (Count)
system.cpu0.commit.committedInstType_0::MemWrite       254889      1.89%     99.74% # Class of committed instruction (Count)
system.cpu0.commit.committedInstType_0::FloatMemRead        21257      0.16%     99.90% # Class of committed instruction (Count)
system.cpu0.commit.committedInstType_0::FloatMemWrite        14148      0.10%    100.00% # Class of committed instruction (Count)
system.cpu0.commit.committedInstType_0::IprAccess            0      0.00%    100.00% # Class of committed instruction (Count)
system.cpu0.commit.committedInstType_0::InstPrefetch            0      0.00%    100.00% # Class of committed instruction (Count)
system.cpu0.commit.committedInstType_0::total     13483419                       # Class of committed instruction (Count)
system.cpu0.commit.commitEligibleSamples       701879                       # number cycles where commit BW limit reached (Cycle)
system.cpu0.decode.idleCycles                  867732                       # Number of cycles decode is idle (Cycle)
system.cpu0.decode.blockedCycles              9156111                       # Number of cycles decode is blocked (Cycle)
system.cpu0.decode.runCycles                   892090                       # Number of cycles decode is running (Cycle)
system.cpu0.decode.unblockCycles              1131353                       # Number of cycles decode is unblocking (Cycle)
system.cpu0.decode.squashCycles                 31012                       # Number of cycles decode is squashing (Cycle)
system.cpu0.decode.branchResolved              714358                       # Number of times decode resolved a branch (Count)
system.cpu0.decode.branchMispred                 1088                       # Number of times decode detected a branch misprediction (Count)
system.cpu0.decode.decodedInsts              15337573                       # Number of instructions handled by decode (Count)
system.cpu0.decode.squashedInsts                 5139                       # Number of squashed instructions handled by decode (Count)
system.cpu0.fetch.icacheStallCycles           1313154                       # Number of cycles fetch is stalled on an Icache miss (Cycle)
system.cpu0.fetch.insts                       9814181                       # Number of instructions fetch has processed (Count)
system.cpu0.fetch.branches                    1048249                       # Number of branches that fetch encountered (Count)
system.cpu0.fetch.predictedBranches            763735                       # Number of branches that fetch has predicted taken (Count)
system.cpu0.fetch.cycles                     10503655                       # Number of cycles fetch has run and was not squashing or blocked (Cycle)
system.cpu0.fetch.squashCycles                  64156                       # Number of cycles fetch has spent squashing (Cycle)
system.cpu0.fetch.miscStallCycles               13655                       # Number of cycles fetch has spent waiting on interrupts, or bad addresses, or out of MSHRs (Cycle)
system.cpu0.fetch.pendingTrapStallCycles        13991                       # Number of stall cycles due to pending traps (Cycle)
system.cpu0.fetch.icacheWaitRetryStallCycles       201765                       # Number of stall cycles due to full MSHR (Cycle)
system.cpu0.fetch.cacheLines                  1124060                       # Number of cache lines fetched (Count)
system.cpu0.fetch.icacheSquashes                 6929                       # Number of outstanding Icache misses that were squashed (Count)
system.cpu0.fetch.nisnDist::samples          12078298                       # Number of instructions fetched each cycle (Total) (Count)
system.cpu0.fetch.nisnDist::mean             1.314546                       # Number of instructions fetched each cycle (Total) (Count)
system.cpu0.fetch.nisnDist::stdev            2.679164                       # Number of instructions fetched each cycle (Total) (Count)
system.cpu0.fetch.nisnDist::underflows              0      0.00%      0.00% # Number of instructions fetched each cycle (Total) (Count)
system.cpu0.fetch.nisnDist::0                 9323041     77.19%     77.19% # Number of instructions fetched each cycle (Total) (Count)
system.cpu0.fetch.nisnDist::1                  171732      1.42%     78.61% # Number of instructions fetched each cycle (Total) (Count)
system.cpu0.fetch.nisnDist::2                  182517      1.51%     80.12% # Number of instructions fetched each cycle (Total) (Count)
system.cpu0.fetch.nisnDist::3                  254588      2.11%     82.23% # Number of instructions fetched each cycle (Total) (Count)
system.cpu0.fetch.nisnDist::4                  356840      2.95%     85.18% # Number of instructions fetched each cycle (Total) (Count)
system.cpu0.fetch.nisnDist::5                  211897      1.75%     86.94% # Number of instructions fetched each cycle (Total) (Count)
system.cpu0.fetch.nisnDist::6                  183760      1.52%     88.46% # Number of instructions fetched each cycle (Total) (Count)
system.cpu0.fetch.nisnDist::7                  163846      1.36%     89.82% # Number of instructions fetched each cycle (Total) (Count)
system.cpu0.fetch.nisnDist::8                 1230077     10.18%    100.00% # Number of instructions fetched each cycle (Total) (Count)
system.cpu0.fetch.nisnDist::overflows               0      0.00%    100.00% # Number of instructions fetched each cycle (Total) (Count)
system.cpu0.fetch.nisnDist::min_value               0                       # Number of instructions fetched each cycle (Total) (Count)
system.cpu0.fetch.nisnDist::max_value               8                       # Number of instructions fetched each cycle (Total) (Count)
system.cpu0.fetch.nisnDist::total            12078298                       # Number of instructions fetched each cycle (Total) (Count)
system.cpu0.fetch.branchRate                 0.079755                       # Number of branch fetches per cycle (Ratio)
system.cpu0.fetch.rate                       0.746700                       # Number of inst fetches per cycle ((Count/Cycle))
system.cpu0.iew.idleCycles                          0                       # Number of cycles IEW is idle (Cycle)
system.cpu0.iew.squashCycles                    31012                       # Number of cycles IEW is squashing (Cycle)
system.cpu0.iew.blockCycles                   4964104                       # Number of cycles IEW is blocking (Cycle)
system.cpu0.iew.unblockCycles                  141565                       # Number of cycles IEW is unblocking (Cycle)
system.cpu0.iew.dispatchedInsts              14956011                       # Number of instructions dispatched to IQ (Count)
system.cpu0.iew.dispSquashedInsts                2041                       # Number of squashed instructions skipped by dispatch (Count)
system.cpu0.iew.dispLoadInsts                  882149                       # Number of dispatched load instructions (Count)
system.cpu0.iew.dispStoreInsts                 377449                       # Number of dispatched store instructions (Count)
system.cpu0.iew.dispNonSpecInsts                  749                       # Number of dispatched non-speculative instructions (Count)
system.cpu0.iew.iqFullEvents                     7320                       # Number of times the IQ has become full, causing a stall (Count)
system.cpu0.iew.lsqFullEvents                  129140                       # Number of times the LSQ has become full, causing a stall (Count)
system.cpu0.iew.memOrderViolationEvents          7804                       # Number of memory order violations (Count)
system.cpu0.iew.predictedTakenIncorrect         11149                       # Number of branches that were predicted taken incorrectly (Count)
system.cpu0.iew.predictedNotTakenIncorrect        13701                       # Number of branches that were predicted not taken incorrectly (Count)
system.cpu0.iew.branchMispredicts               24850                       # Number of branch mispredicts detected at execute (Count)
system.cpu0.iew.instsToCommit                14287781                       # Cumulative count of insts sent to commit (Count)
system.cpu0.iew.writebackCount               14273568                       # Cumulative count of insts written-back (Count)
system.cpu0.iew.producerInst                 12334787                       # Number of instructions producing a value (Count)
system.cpu0.iew.consumerInst                 30289343                       # Number of instructions consuming a value (Count)
system.cpu0.iew.wbRate                       1.085987                       # Insts written-back per cycle ((Count/Cycle))
system.cpu0.iew.wbFanout                     0.407232                       # Average fanout of values written-back ((Count/Count))
system.cpu0.interrupts.clk_domain.clock          8000                       # Clock period in ticks (Tick)
system.cpu0.lsq0.forwLoads                      61313                       # Number of loads that had data forwarded from stores (Count)
system.cpu0.lsq0.squashedLoads                 229131                       # Number of loads squashed (Count)
system.cpu0.lsq0.ignoredResponses                  96                       # Number of memory responses ignored because the instruction is squashed (Count)
system.cpu0.lsq0.memOrderViolation               7804                       # Number of memory ordering violations (Count)
system.cpu0.lsq0.squashedStores                108412                       # Number of stores squashed (Count)
system.cpu0.lsq0.rescheduledLoads                 150                       # Number of loads that were rescheduled (Count)
system.cpu0.lsq0.blockedByCache                  2052                       # Number of times an access to memory failed due to the cache being blocked (Count)
system.cpu0.lsq0.loadToUse::samples            652940                       # Distribution of cycle latency between the first time a load is issued and its completion (Unspecified)
system.cpu0.lsq0.loadToUse::mean            49.587694                       # Distribution of cycle latency between the first time a load is issued and its completion (Unspecified)
system.cpu0.lsq0.loadToUse::stdev          187.586601                       # Distribution of cycle latency between the first time a load is issued and its completion (Unspecified)
system.cpu0.lsq0.loadToUse::0-9                607815     93.09%     93.09% # Distribution of cycle latency between the first time a load is issued and its completion (Unspecified)
system.cpu0.lsq0.loadToUse::10-19                  71      0.01%     93.10% # Distribution of cycle latency between the first time a load is issued and its completion (Unspecified)
system.cpu0.lsq0.loadToUse::20-29                  85      0.01%     93.11% # Distribution of cycle latency between the first time a load is issued and its completion (Unspecified)
system.cpu0.lsq0.loadToUse::30-39                  96      0.01%     93.13% # Distribution of cycle latency between the first time a load is issued and its completion (Unspecified)
system.cpu0.lsq0.loadToUse::40-49                  65      0.01%     93.14% # Distribution of cycle latency between the first time a load is issued and its completion (Unspecified)
system.cpu0.lsq0.loadToUse::50-59                 165      0.03%     93.16% # Distribution of cycle latency between the first time a load is issued and its completion (Unspecified)
system.cpu0.lsq0.loadToUse::60-69                 111      0.02%     93.18% # Distribution of cycle latency between the first time a load is issued and its completion (Unspecified)
system.cpu0.lsq0.loadToUse::70-79                  90      0.01%     93.19% # Distribution of cycle latency between the first time a load is issued and its completion (Unspecified)
system.cpu0.lsq0.loadToUse::80-89                  67      0.01%     93.20% # Distribution of cycle latency between the first time a load is issued and its completion (Unspecified)
system.cpu0.lsq0.loadToUse::90-99                  64      0.01%     93.21% # Distribution of cycle latency between the first time a load is issued and its completion (Unspecified)
system.cpu0.lsq0.loadToUse::100-109                66      0.01%     93.22% # Distribution of cycle latency between the first time a load is issued and its completion (Unspecified)
system.cpu0.lsq0.loadToUse::110-119                63      0.01%     93.23% # Distribution of cycle latency between the first time a load is issued and its completion (Unspecified)
system.cpu0.lsq0.loadToUse::120-129                70      0.01%     93.24% # Distribution of cycle latency between the first time a load is issued and its completion (Unspecified)
system.cpu0.lsq0.loadToUse::130-139                47      0.01%     93.25% # Distribution of cycle latency between the first time a load is issued and its completion (Unspecified)
system.cpu0.lsq0.loadToUse::140-149                62      0.01%     93.26% # Distribution of cycle latency between the first time a load is issued and its completion (Unspecified)
system.cpu0.lsq0.loadToUse::150-159                58      0.01%     93.27% # Distribution of cycle latency between the first time a load is issued and its completion (Unspecified)
system.cpu0.lsq0.loadToUse::160-169                70      0.01%     93.28% # Distribution of cycle latency between the first time a load is issued and its completion (Unspecified)
system.cpu0.lsq0.loadToUse::170-179               120      0.02%     93.30% # Distribution of cycle latency between the first time a load is issued and its completion (Unspecified)
system.cpu0.lsq0.loadToUse::180-189               559      0.09%     93.38% # Distribution of cycle latency between the first time a load is issued and its completion (Unspecified)
system.cpu0.lsq0.loadToUse::190-199                38      0.01%     93.39% # Distribution of cycle latency between the first time a load is issued and its completion (Unspecified)
system.cpu0.lsq0.loadToUse::200-209                62      0.01%     93.40% # Distribution of cycle latency between the first time a load is issued and its completion (Unspecified)
system.cpu0.lsq0.loadToUse::210-219                62      0.01%     93.41% # Distribution of cycle latency between the first time a load is issued and its completion (Unspecified)
system.cpu0.lsq0.loadToUse::220-229               108      0.02%     93.43% # Distribution of cycle latency between the first time a load is issued and its completion (Unspecified)
system.cpu0.lsq0.loadToUse::230-239               191      0.03%     93.45% # Distribution of cycle latency between the first time a load is issued and its completion (Unspecified)
system.cpu0.lsq0.loadToUse::240-249              1075      0.16%     93.62% # Distribution of cycle latency between the first time a load is issued and its completion (Unspecified)
system.cpu0.lsq0.loadToUse::250-259                61      0.01%     93.63% # Distribution of cycle latency between the first time a load is issued and its completion (Unspecified)
system.cpu0.lsq0.loadToUse::260-269                66      0.01%     93.64% # Distribution of cycle latency between the first time a load is issued and its completion (Unspecified)
system.cpu0.lsq0.loadToUse::270-279                79      0.01%     93.65% # Distribution of cycle latency between the first time a load is issued and its completion (Unspecified)
system.cpu0.lsq0.loadToUse::280-289               157      0.02%     93.68% # Distribution of cycle latency between the first time a load is issued and its completion (Unspecified)
system.cpu0.lsq0.loadToUse::290-299               253      0.04%     93.71% # Distribution of cycle latency between the first time a load is issued and its completion (Unspecified)
system.cpu0.lsq0.loadToUse::overflows           41044      6.29%    100.00% # Distribution of cycle latency between the first time a load is issued and its completion (Unspecified)
system.cpu0.lsq0.loadToUse::min_value               2                       # Distribution of cycle latency between the first time a load is issued and its completion (Unspecified)
system.cpu0.lsq0.loadToUse::max_value            2634                       # Distribution of cycle latency between the first time a load is issued and its completion (Unspecified)
system.cpu0.lsq0.loadToUse::total              652940                       # Distribution of cycle latency between the first time a load is issued and its completion (Unspecified)
system.cpu0.mmu.dtb.rdAccesses                 777418                       # TLB accesses on read requests (Count)
system.cpu0.mmu.dtb.wrAccesses                 305907                       # TLB accesses on write requests (Count)
system.cpu0.mmu.dtb.rdMisses                     3130                       # TLB misses on read requests (Count)
system.cpu0.mmu.dtb.wrMisses                      412                       # TLB misses on write requests (Count)
system.cpu0.mmu.dtb.walker.power_state.pwrStateResidencyTicks::UNDEFINED   6571705500                       # Cumulative time (in ticks) in various power states (Tick)
system.cpu0.mmu.itb.rdAccesses                      0                       # TLB accesses on read requests (Count)
system.cpu0.mmu.itb.wrAccesses                1126283                       # TLB accesses on write requests (Count)
system.cpu0.mmu.itb.rdMisses                        0                       # TLB misses on read requests (Count)
system.cpu0.mmu.itb.wrMisses                     2774                       # TLB misses on write requests (Count)
system.cpu0.mmu.itb.walker.power_state.pwrStateResidencyTicks::UNDEFINED   6571705500                       # Cumulative time (in ticks) in various power states (Tick)
system.cpu0.power_state.pwrStateResidencyTicks::ON   6571705500                       # Cumulative time (in ticks) in various power states (Tick)
system.cpu0.rename.squashCycles                 31012                       # Number of cycles rename is squashing (Cycle)
system.cpu0.rename.idleCycles                 1277358                       # Number of cycles rename is idle (Cycle)
system.cpu0.rename.blockCycles                6567089                       # Number of cycles rename is blocking (Cycle)
system.cpu0.rename.serializeStallCycles         20432                       # count of cycles rename stalled for serializing inst (Cycle)
system.cpu0.rename.runCycles                  1593416                       # Number of cycles rename is running (Cycle)
system.cpu0.rename.unblockCycles              2588991                       # Number of cycles rename is unblocking (Cycle)
system.cpu0.rename.renamedInsts              15162752                       # Number of instructions processed by rename (Count)
system.cpu0.rename.ROBFullEvents               114154                       # Number of times rename has blocked due to ROB full (Count)
system.cpu0.rename.IQFullEvents               1566955                       # Number of times rename has blocked due to IQ full (Count)
system.cpu0.rename.LQFullEvents                150394                       # Number of times rename has blocked due to LQ full (Count)
system.cpu0.rename.SQFullEvents                499254                       # Number of times rename has blocked due to SQ full (Count)
system.cpu0.rename.fullRegistersEvents           3055                       # Number of times there has been no free registers (Count)
system.cpu0.rename.renamedOperands           34405021                       # Number of destination operands rename has renamed (Count)
system.cpu0.rename.lookups                   66673857                       # Number of register rename lookups that rename has made (Count)
system.cpu0.rename.intLookups                26533881                       # Number of integer rename lookups (Count)
system.cpu0.rename.fpLookups                   188331                       # Number of floating rename lookups (Count)
system.cpu0.rename.committedMaps             31277333                       # Number of HB maps that are committed (Count)
system.cpu0.rename.undoneMaps                 3127438                       # Number of HB maps that are undone due to squashing (Count)
system.cpu0.rename.serializing                    757                       # count of serializing insts renamed (Count)
system.cpu0.rename.tempSerializing                742                       # count of temporary serializing insts renamed (Count)
system.cpu0.rename.skidInsts                  5227087                       # count of insts added to the skid buffer (Count)
system.cpu0.rob.reads                        26107627                       # The number of ROB reads (Count)
system.cpu0.rob.writes                       30101617                       # The number of ROB writes (Count)
system.cpu0.thread_0.numInsts                 8487560                       # Number of Instructions committed (Count)
system.cpu0.thread_0.numOps                  13483419                       # Number of Ops committed (Count)
system.cpu0.thread_0.numMemRefs                     0                       # Number of Memory References (Count)
system.cpu0.workload.numSyscalls                   62                       # Number of system calls (Count)
system.cpu1.numCycles                        13143412                       # Number of cpu cycles simulated (Cycle)
system.cpu1.numWorkItemsStarted                     0                       # Number of work items this cpu started (Count)
system.cpu1.numWorkItemsCompleted                   0                       # Number of work items this cpu completed (Count)
system.cpu1.instsAdded                       16432113                       # Number of instructions added to the IQ (excludes non-spec) (Count)
system.cpu1.nonSpecInstsAdded                     881                       # Number of non-speculative instructions added to the IQ (Count)
system.cpu1.instsIssued                      15804769                       # Number of instructions issued (Count)
system.cpu1.squashedInstsIssued                  2824                       # Number of squashed instructions issued (Count)
system.cpu1.squashedInstsExamined             1536915                       # Number of squashed instructions iterated over during squash; mainly for profiling (Count)
system.cpu1.squashedOperandsExamined          3217726                       # Number of squashed operands that are examined and possibly removed from graph (Count)
system.cpu1.squashedNonSpecRemoved                148                       # Number of squashed non-spec instructions that were removed (Count)
system.cpu1.numIssuedDist::samples           12170749                       # Number of insts issued each cycle (Count)
system.cpu1.numIssuedDist::mean              1.298586                       # Number of insts issued each cycle (Count)
system.cpu1.numIssuedDist::stdev             1.787366                       # Number of insts issued each cycle (Count)
system.cpu1.numIssuedDist::underflows               0      0.00%      0.00% # Number of insts issued each cycle (Count)
system.cpu1.numIssuedDist::0                  7092995     58.28%     58.28% # Number of insts issued each cycle (Count)
system.cpu1.numIssuedDist::1                   487626      4.01%     62.29% # Number of insts issued each cycle (Count)
system.cpu1.numIssuedDist::2                  1394496     11.46%     73.74% # Number of insts issued each cycle (Count)
system.cpu1.numIssuedDist::3                  1535005     12.61%     86.36% # Number of insts issued each cycle (Count)
system.cpu1.numIssuedDist::4                   877886      7.21%     93.57% # Number of insts issued each cycle (Count)
system.cpu1.numIssuedDist::5                   458235      3.77%     97.33% # Number of insts issued each cycle (Count)
system.cpu1.numIssuedDist::6                   194413      1.60%     98.93% # Number of insts issued each cycle (Count)
system.cpu1.numIssuedDist::7                    86805      0.71%     99.64% # Number of insts issued each cycle (Count)
system.cpu1.numIssuedDist::8                    43288      0.36%    100.00% # Number of insts issued each cycle (Count)
system.cpu1.numIssuedDist::overflows                0      0.00%    100.00% # Number of insts issued each cycle (Count)
system.cpu1.numIssuedDist::min_value                0                       # Number of insts issued each cycle (Count)
system.cpu1.numIssuedDist::max_value                8                       # Number of insts issued each cycle (Count)
system.cpu1.numIssuedDist::total             12170749                       # Number of insts issued each cycle (Count)
system.cpu1.statFuBusy::No_OpClass                  0      0.00%      0.00% # attempts to use FU when none available (Count)
system.cpu1.statFuBusy::IntAlu                  58121     72.50%     72.50% # attempts to use FU when none available (Count)
system.cpu1.statFuBusy::IntMult                     0      0.00%     72.50% # attempts to use FU when none available (Count)
system.cpu1.statFuBusy::IntDiv                      0      0.00%     72.50% # attempts to use FU when none available (Count)
system.cpu1.statFuBusy::FloatAdd                    0      0.00%     72.50% # attempts to use FU when none available (Count)
system.cpu1.statFuBusy::FloatCmp                    0      0.00%     72.50% # attempts to use FU when none available (Count)
system.cpu1.statFuBusy::FloatCvt                    0      0.00%     72.50% # attempts to use FU when none available (Count)
system.cpu1.statFuBusy::FloatMult                   0      0.00%     72.50% # attempts to use FU when none available (Count)
system.cpu1.statFuBusy::FloatMultAcc                0      0.00%     72.50% # attempts to use FU when none available (Count)
system.cpu1.statFuBusy::FloatDiv                    0      0.00%     72.50% # attempts to use FU when none available (Count)
system.cpu1.statFuBusy::FloatMisc                   0      0.00%     72.50% # attempts to use FU when none available (Count)
system.cpu1.statFuBusy::FloatSqrt                   0      0.00%     72.50% # attempts to use FU when none available (Count)
system.cpu1.statFuBusy::SimdAdd                     0      0.00%     72.50% # attempts to use FU when none available (Count)
system.cpu1.statFuBusy::SimdAddAcc                  0      0.00%     72.50% # attempts to use FU when none available (Count)
system.cpu1.statFuBusy::SimdAlu                   122      0.15%     72.65% # attempts to use FU when none available (Count)
system.cpu1.statFuBusy::SimdCmp                     0      0.00%     72.65% # attempts to use FU when none available (Count)
system.cpu1.statFuBusy::SimdCvt                   167      0.21%     72.86% # attempts to use FU when none available (Count)
system.cpu1.statFuBusy::SimdMisc                    0      0.00%     72.86% # attempts to use FU when none available (Count)
system.cpu1.statFuBusy::SimdMult                    0      0.00%     72.86% # attempts to use FU when none available (Count)
system.cpu1.statFuBusy::SimdMultAcc                 0      0.00%     72.86% # attempts to use FU when none available (Count)
system.cpu1.statFuBusy::SimdShift                 209      0.26%     73.12% # attempts to use FU when none available (Count)
system.cpu1.statFuBusy::SimdShiftAcc                0      0.00%     73.12% # attempts to use FU when none available (Count)
system.cpu1.statFuBusy::SimdDiv                     0      0.00%     73.12% # attempts to use FU when none available (Count)
system.cpu1.statFuBusy::SimdSqrt                    0      0.00%     73.12% # attempts to use FU when none available (Count)
system.cpu1.statFuBusy::SimdFloatAdd                0      0.00%     73.12% # attempts to use FU when none available (Count)
system.cpu1.statFuBusy::SimdFloatAlu                0      0.00%     73.12% # attempts to use FU when none available (Count)
system.cpu1.statFuBusy::SimdFloatCmp                0      0.00%     73.12% # attempts to use FU when none available (Count)
system.cpu1.statFuBusy::SimdFloatCvt                0      0.00%     73.12% # attempts to use FU when none available (Count)
system.cpu1.statFuBusy::SimdFloatDiv                0      0.00%     73.12% # attempts to use FU when none available (Count)
system.cpu1.statFuBusy::SimdFloatMisc               0      0.00%     73.12% # attempts to use FU when none available (Count)
system.cpu1.statFuBusy::SimdFloatMult               0      0.00%     73.12% # attempts to use FU when none available (Count)
system.cpu1.statFuBusy::SimdFloatMultAcc            0      0.00%     73.12% # attempts to use FU when none available (Count)
system.cpu1.statFuBusy::SimdFloatSqrt               0      0.00%     73.12% # attempts to use FU when none available (Count)
system.cpu1.statFuBusy::SimdReduceAdd               0      0.00%     73.12% # attempts to use FU when none available (Count)
system.cpu1.statFuBusy::SimdReduceAlu               0      0.00%     73.12% # attempts to use FU when none available (Count)
system.cpu1.statFuBusy::SimdReduceCmp               0      0.00%     73.12% # attempts to use FU when none available (Count)
system.cpu1.statFuBusy::SimdFloatReduceAdd            0      0.00%     73.12% # attempts to use FU when none available (Count)
system.cpu1.statFuBusy::SimdFloatReduceCmp            0      0.00%     73.12% # attempts to use FU when none available (Count)
system.cpu1.statFuBusy::SimdAes                     0      0.00%     73.12% # attempts to use FU when none available (Count)
system.cpu1.statFuBusy::SimdAesMix                  0      0.00%     73.12% # attempts to use FU when none available (Count)
system.cpu1.statFuBusy::SimdSha1Hash                0      0.00%     73.12% # attempts to use FU when none available (Count)
system.cpu1.statFuBusy::SimdSha1Hash2               0      0.00%     73.12% # attempts to use FU when none available (Count)
system.cpu1.statFuBusy::SimdSha256Hash              0      0.00%     73.12% # attempts to use FU when none available (Count)
system.cpu1.statFuBusy::SimdSha256Hash2             0      0.00%     73.12% # attempts to use FU when none available (Count)
system.cpu1.statFuBusy::SimdShaSigma2               0      0.00%     73.12% # attempts to use FU when none available (Count)
system.cpu1.statFuBusy::SimdShaSigma3               0      0.00%     73.12% # attempts to use FU when none available (Count)
system.cpu1.statFuBusy::SimdPredAlu                 0      0.00%     73.12% # attempts to use FU when none available (Count)
system.cpu1.statFuBusy::MemRead                 12061     15.04%     88.16% # attempts to use FU when none available (Count)
system.cpu1.statFuBusy::MemWrite                 7684      9.58%     97.75% # attempts to use FU when none available (Count)
system.cpu1.statFuBusy::FloatMemRead             1343      1.68%     99.42% # attempts to use FU when none available (Count)
system.cpu1.statFuBusy::FloatMemWrite             462      0.58%    100.00% # attempts to use FU when none available (Count)
system.cpu1.statFuBusy::IprAccess                   0      0.00%    100.00% # attempts to use FU when none available (Count)
system.cpu1.statFuBusy::InstPrefetch                0      0.00%    100.00% # attempts to use FU when none available (Count)
system.cpu1.statIssuedInstType_0::No_OpClass        78092      0.49%      0.49% # Number of instructions issued per FU type, per thread (Count)
system.cpu1.statIssuedInstType_0::IntAlu     14483738     91.64%     92.14% # Number of instructions issued per FU type, per thread (Count)
system.cpu1.statIssuedInstType_0::IntMult           38      0.00%     92.14% # Number of instructions issued per FU type, per thread (Count)
system.cpu1.statIssuedInstType_0::IntDiv        38432      0.24%     92.38% # Number of instructions issued per FU type, per thread (Count)
system.cpu1.statIssuedInstType_0::FloatAdd         4217      0.03%     92.41% # Number of instructions issued per FU type, per thread (Count)
system.cpu1.statIssuedInstType_0::FloatCmp            0      0.00%     92.41% # Number of instructions issued per FU type, per thread (Count)
system.cpu1.statIssuedInstType_0::FloatCvt         1426      0.01%     92.41% # Number of instructions issued per FU type, per thread (Count)
system.cpu1.statIssuedInstType_0::FloatMult            0      0.00%     92.41% # Number of instructions issued per FU type, per thread (Count)
system.cpu1.statIssuedInstType_0::FloatMultAcc            0      0.00%     92.41% # Number of instructions issued per FU type, per thread (Count)
system.cpu1.statIssuedInstType_0::FloatDiv            0      0.00%     92.41% # Number of instructions issued per FU type, per thread (Count)
system.cpu1.statIssuedInstType_0::FloatMisc            0      0.00%     92.41% # Number of instructions issued per FU type, per thread (Count)
system.cpu1.statIssuedInstType_0::FloatSqrt            0      0.00%     92.41% # Number of instructions issued per FU type, per thread (Count)
system.cpu1.statIssuedInstType_0::SimdAdd         8417      0.05%     92.47% # Number of instructions issued per FU type, per thread (Count)
system.cpu1.statIssuedInstType_0::SimdAddAcc            0      0.00%     92.47% # Number of instructions issued per FU type, per thread (Count)
system.cpu1.statIssuedInstType_0::SimdAlu        17056      0.11%     92.58% # Number of instructions issued per FU type, per thread (Count)
system.cpu1.statIssuedInstType_0::SimdCmp            0      0.00%     92.58% # Number of instructions issued per FU type, per thread (Count)
system.cpu1.statIssuedInstType_0::SimdCvt        18646      0.12%     92.69% # Number of instructions issued per FU type, per thread (Count)
system.cpu1.statIssuedInstType_0::SimdMisc         8832      0.06%     92.75% # Number of instructions issued per FU type, per thread (Count)
system.cpu1.statIssuedInstType_0::SimdMult            0      0.00%     92.75% # Number of instructions issued per FU type, per thread (Count)
system.cpu1.statIssuedInstType_0::SimdMultAcc            0      0.00%     92.75% # Number of instructions issued per FU type, per thread (Count)
system.cpu1.statIssuedInstType_0::SimdShift         2917      0.02%     92.77% # Number of instructions issued per FU type, per thread (Count)
system.cpu1.statIssuedInstType_0::SimdShiftAcc            0      0.00%     92.77% # Number of instructions issued per FU type, per thread (Count)
system.cpu1.statIssuedInstType_0::SimdDiv            0      0.00%     92.77% # Number of instructions issued per FU type, per thread (Count)
system.cpu1.statIssuedInstType_0::SimdSqrt            0      0.00%     92.77% # Number of instructions issued per FU type, per thread (Count)
system.cpu1.statIssuedInstType_0::SimdFloatAdd            0      0.00%     92.77% # Number of instructions issued per FU type, per thread (Count)
system.cpu1.statIssuedInstType_0::SimdFloatAlu            0      0.00%     92.77% # Number of instructions issued per FU type, per thread (Count)
system.cpu1.statIssuedInstType_0::SimdFloatCmp            0      0.00%     92.77% # Number of instructions issued per FU type, per thread (Count)
system.cpu1.statIssuedInstType_0::SimdFloatCvt            0      0.00%     92.77% # Number of instructions issued per FU type, per thread (Count)
system.cpu1.statIssuedInstType_0::SimdFloatDiv            0      0.00%     92.77% # Number of instructions issued per FU type, per thread (Count)
system.cpu1.statIssuedInstType_0::SimdFloatMisc            0      0.00%     92.77% # Number of instructions issued per FU type, per thread (Count)
system.cpu1.statIssuedInstType_0::SimdFloatMult            0      0.00%     92.77% # Number of instructions issued per FU type, per thread (Count)
system.cpu1.statIssuedInstType_0::SimdFloatMultAcc            0      0.00%     92.77% # Number of instructions issued per FU type, per thread (Count)
system.cpu1.statIssuedInstType_0::SimdFloatSqrt            0      0.00%     92.77% # Number of instructions issued per FU type, per thread (Count)
system.cpu1.statIssuedInstType_0::SimdReduceAdd            0      0.00%     92.77% # Number of instructions issued per FU type, per thread (Count)
system.cpu1.statIssuedInstType_0::SimdReduceAlu            0      0.00%     92.77% # Number of instructions issued per FU type, per thread (Count)
system.cpu1.statIssuedInstType_0::SimdReduceCmp            0      0.00%     92.77% # Number of instructions issued per FU type, per thread (Count)
system.cpu1.statIssuedInstType_0::SimdFloatReduceAdd            0      0.00%     92.77% # Number of instructions issued per FU type, per thread (Count)
system.cpu1.statIssuedInstType_0::SimdFloatReduceCmp            0      0.00%     92.77% # Number of instructions issued per FU type, per thread (Count)
system.cpu1.statIssuedInstType_0::SimdAes            0      0.00%     92.77% # Number of instructions issued per FU type, per thread (Count)
system.cpu1.statIssuedInstType_0::SimdAesMix            0      0.00%     92.77% # Number of instructions issued per FU type, per thread (Count)
system.cpu1.statIssuedInstType_0::SimdSha1Hash            0      0.00%     92.77% # Number of instructions issued per FU type, per thread (Count)
system.cpu1.statIssuedInstType_0::SimdSha1Hash2            0      0.00%     92.77% # Number of instructions issued per FU type, per thread (Count)
system.cpu1.statIssuedInstType_0::SimdSha256Hash            0      0.00%     92.77% # Number of instructions issued per FU type, per thread (Count)
system.cpu1.statIssuedInstType_0::SimdSha256Hash2            0      0.00%     92.77% # Number of instructions issued per FU type, per thread (Count)
system.cpu1.statIssuedInstType_0::SimdShaSigma2            0      0.00%     92.77% # Number of instructions issued per FU type, per thread (Count)
system.cpu1.statIssuedInstType_0::SimdShaSigma3            0      0.00%     92.77% # Number of instructions issued per FU type, per thread (Count)
system.cpu1.statIssuedInstType_0::SimdPredAlu            0      0.00%     92.77% # Number of instructions issued per FU type, per thread (Count)
system.cpu1.statIssuedInstType_0::MemRead       783867      4.96%     97.73% # Number of instructions issued per FU type, per thread (Count)
system.cpu1.statIssuedInstType_0::MemWrite       306975      1.94%     99.67% # Number of instructions issued per FU type, per thread (Count)
system.cpu1.statIssuedInstType_0::FloatMemRead        33803      0.21%     99.88% # Number of instructions issued per FU type, per thread (Count)
system.cpu1.statIssuedInstType_0::FloatMemWrite        18313      0.12%    100.00% # Number of instructions issued per FU type, per thread (Count)
system.cpu1.statIssuedInstType_0::IprAccess            0      0.00%    100.00% # Number of instructions issued per FU type, per thread (Count)
system.cpu1.statIssuedInstType_0::InstPrefetch            0      0.00%    100.00% # Number of instructions issued per FU type, per thread (Count)
system.cpu1.statIssuedInstType_0::total      15804769                       # Number of instructions issued per FU type, per thread (Count)
system.cpu1.issueRate                        1.202486                       # Inst issue rate ((Count/Cycle))
system.cpu1.fuBusy                              80169                       # FU busy when requested (Count)
system.cpu1.fuBusyRate                       0.005072                       # FU busy rate (busy events/executed inst) ((Count/Count))
system.cpu1.intInstQueueReads                43631139                       # Number of integer instruction queue reads (Count)
system.cpu1.intInstQueueWrites               17802667                       # Number of integer instruction queue writes (Count)
system.cpu1.intInstQueueWakeupAccesses       15600454                       # Number of integer instruction queue wakeup accesses (Count)
system.cpu1.fpInstQueueReads                   232137                       # Number of floating instruction queue reads (Count)
system.cpu1.fpInstQueueWrites                  176190                       # Number of floating instruction queue writes (Count)
system.cpu1.fpInstQueueWakeupAccesses          111051                       # Number of floating instruction queue wakeup accesses (Count)
system.cpu1.vecInstQueueReads                       0                       # Number of vector instruction queue reads (Count)
system.cpu1.vecInstQueueWrites                      0                       # Number of vector instruction queue writes (Count)
system.cpu1.vecInstQueueWakeupAccesses              0                       # Number of vector instruction queue wakeup accesses (Count)
system.cpu1.intAluAccesses                   15689775                       # Number of integer alu accesses (Count)
system.cpu1.fpAluAccesses                      117071                       # Number of floating point alu accesses (Count)
system.cpu1.vecAluAccesses                          0                       # Number of vector alu accesses (Count)
system.cpu1.numInsts                         15747027                       # Number of executed instructions (Count)
system.cpu1.numLoadInsts                       806252                       # Number of load instructions executed (Count)
system.cpu1.numSquashedInsts                    57738                       # Number of squashed instructions skipped in execute (Count)
system.cpu1.numSwp                                  0                       # Number of swp insts executed (Count)
system.cpu1.numNop                                  0                       # Number of nop insts executed (Count)
system.cpu1.numRefs                           1127083                       # Number of memory reference insts executed (Count)
system.cpu1.numBranches                        970200                       # Number of branches executed (Count)
[...]
system.ruby.network.ext_out_link_utilization      4136265                       (Unspecified)
system.ruby.network.flit_network_latency | 78485641000                       |205754432500                       | 19334202000                       (Unspecified)
system.ruby.network.flit_queueing_latency |  2100147500                       |  2181573500                       |   146564500                       (Unspecified)
system.ruby.network.flits_injected       |      980342     23.70%     23.70% |     2862794     69.21%     92.91% |      293129      7.09%    100.00% (Unspecified)
system.ruby.network.flits_injected::total      4136265                       (Unspecified)
system.ruby.network.flits_received       |      980342     23.70%     23.70% |     2862794     69.21%     92.91% |      293129      7.09%    100.00% (Unspecified)
system.ruby.network.flits_received::total      4136265                       (Unspecified)
system.ruby.network.int_link_utilization     10251958                       (Unspecified)
system.ruby.network.packet_network_latency | 58499051500                       | 68054047500                       | 19334202000                       (Unspecified)
system.ruby.network.packet_queueing_latency |  1722895500                       |   567283500                       |   146564500                       (Unspecified)
system.ruby.network.packets_injected     |      800530     42.26%     42.26% |      800530     42.26%     84.52% |      293129     15.48%    100.00% (Unspecified)
system.ruby.network.packets_injected::total      1894189                       (Unspecified)
system.ruby.network.packets_received     |      800530     42.26%     42.26% |      800530     42.26%     84.52% |      293129     15.48%    100.00% (Unspecified)
system.ruby.network.packets_received::total      1894189                       (Unspecified)
system.ruby.network.routers00.Var_1                 0                       (Unspecified)
system.ruby.network.routers00.Var_2                 0                       (Unspecified)
system.ruby.network.routers00.Var_3                 0                       (Unspecified)
system.ruby.network.routers00.all_counts            0                       (Unspecified)
system.ruby.network.routers00.buffer_reads       655392                       (Unspecified)
system.ruby.network.routers00.buffer_writes       655392                       (Unspecified)
system.ruby.network.routers00.crossbar_activity       655392                       (Unspecified)
system.ruby.network.routers00.detour_counts            0                       (Unspecified)
system.ruby.network.routers00.regular_var            0                       (Unspecified)
system.ruby.network.routers00.risk_counts            0                       (Unspecified)
system.ruby.network.routers00.sw_input_arbiter_activity       660083                       (Unspecified)
system.ruby.network.routers00.sw_output_arbiter_activity       655392                       (Unspecified)
system.ruby.network.routers01.Var_1                 0                       (Unspecified)
system.ruby.network.routers01.Var_2                 0                       (Unspecified)
system.ruby.network.routers01.Var_3                 0                       (Unspecified)
system.ruby.network.routers01.all_counts            0                       (Unspecified)
system.ruby.network.routers01.buffer_reads       915639                       (Unspecified)
system.ruby.network.routers01.buffer_writes       915639                       (Unspecified)
system.ruby.network.routers01.crossbar_activity       915639                       (Unspecified)
system.ruby.network.routers01.detour_counts            0                       (Unspecified)
system.ruby.network.routers01.regular_var            0                       (Unspecified)
system.ruby.network.routers01.risk_counts            0                       (Unspecified)
system.ruby.network.routers01.sw_input_arbiter_activity       925620                       (Unspecified)
system.ruby.network.routers01.sw_output_arbiter_activity       915639                       (Unspecified)
system.ruby.network.routers02.Var_1                 0                       (Unspecified)
system.ruby.network.routers02.Var_2                 0                       (Unspecified)
system.ruby.network.routers02.Var_3                 0                       (Unspecified)
system.ruby.network.routers02.all_counts            0                       (Unspecified)
system.ruby.network.routers02.buffer_reads       917803                       (Unspecified)
system.ruby.network.routers02.buffer_writes       917803                       (Unspecified)
system.ruby.network.routers02.crossbar_activity       917803                       (Unspecified)
system.ruby.network.routers02.detour_counts            0                       (Unspecified)
system.ruby.network.routers02.regular_var            0                       (Unspecified)
system.ruby.network.routers02.risk_counts            0                       (Unspecified)
system.ruby.network.routers02.sw_input_arbiter_activity       927976                       (Unspecified)
system.ruby.network.routers02.sw_output_arbiter_activity       917803                       (Unspecified)
system.ruby.network.routers03.Var_1                 0                       (Unspecified)
system.ruby.network.routers03.Var_2                 0                       (Unspecified)
system.ruby.network.routers03.Var_3                 0                       (Unspecified)
system.ruby.network.routers03.all_counts            0                       (Unspecified)
system.ruby.network.routers03.buffer_reads       645641                       (Unspecified)
system.ruby.network.routers03.buffer_writes       645641                       (Unspecified)
system.ruby.network.routers03.crossbar_activity       645641                       (Unspecified)
system.ruby.network.routers03.detour_counts            0                       (Unspecified)
system.ruby.network.routers03.regular_var            0                       (Unspecified)
system.ruby.network.routers03.risk_counts            0                       (Unspecified)
system.ruby.network.routers03.sw_input_arbiter_activity       650011                       (Unspecified)
system.ruby.network.routers03.sw_output_arbiter_activity       645641                       (Unspecified)
system.ruby.network.routers04.Var_1                 0                       (Unspecified)
system.ruby.network.routers04.Var_2                 0                       (Unspecified)
system.ruby.network.routers04.Var_3                 0                       (Unspecified)
system.ruby.network.routers04.all_counts            0                       (Unspecified)
system.ruby.network.routers04.buffer_reads       896289                       (Unspecified)
system.ruby.network.routers04.buffer_writes       896289                       (Unspecified)
system.ruby.network.routers04.crossbar_activity       896289                       (Unspecified)
system.ruby.network.routers04.detour_counts            0                       (Unspecified)
system.ruby.network.routers04.regular_var            0                       (Unspecified)
system.ruby.network.routers04.risk_counts            0                       (Unspecified)
system.ruby.network.routers04.sw_input_arbiter_activity       905536                       (Unspecified)
system.ruby.network.routers04.sw_output_arbiter_activity       896289                       (Unspecified)
system.ruby.network.routers05.Var_1                 0                       (Unspecified)
system.ruby.network.routers05.Var_2                 0                       (Unspecified)
system.ruby.network.routers05.Var_3                 0                       (Unspecified)
system.ruby.network.routers05.all_counts            0                       (Unspecified)
system.ruby.network.routers05.buffer_reads      1157441                       (Unspecified)
system.ruby.network.routers05.buffer_writes      1157441                       (Unspecified)
system.ruby.network.routers05.crossbar_activity      1157441                       (Unspecified)
system.ruby.network.routers05.detour_counts            0                       (Unspecified)
system.ruby.network.routers05.regular_var            0                       (Unspecified)
system.ruby.network.routers05.risk_counts            0                       (Unspecified)
system.ruby.network.routers05.sw_input_arbiter_activity      1172685                       (Unspecified)
system.ruby.network.routers05.sw_output_arbiter_activity      1157441                       (Unspecified)
system.ruby.network.routers06.Var_1                 0                       (Unspecified)
system.ruby.network.routers06.Var_2                 0                       (Unspecified)
system.ruby.network.routers06.Var_3                 0                       (Unspecified)
system.ruby.network.routers06.all_counts            0                       (Unspecified)
system.ruby.network.routers06.buffer_reads      1155403                       (Unspecified)
system.ruby.network.routers06.buffer_writes      1155403                       (Unspecified)
system.ruby.network.routers06.crossbar_activity      1155403                       (Unspecified)
system.ruby.network.routers06.detour_counts            0                       (Unspecified)
system.ruby.network.routers06.regular_var            0                       (Unspecified)
system.ruby.network.routers06.risk_counts            0                       (Unspecified)
system.ruby.network.routers06.sw_input_arbiter_activity      1171024                       (Unspecified)
system.ruby.network.routers06.sw_output_arbiter_activity      1155403                       (Unspecified)
system.ruby.network.routers07.Var_1                 0                       (Unspecified)
system.ruby.network.routers07.Var_2                 0                       (Unspecified)
system.ruby.network.routers07.Var_3                 0                       (Unspecified)
system.ruby.network.routers07.all_counts            0                       (Unspecified)
system.ruby.network.routers07.buffer_reads       883439                       (Unspecified)
system.ruby.network.routers07.buffer_writes       883439                       (Unspecified)
system.ruby.network.routers07.crossbar_activity       883439                       (Unspecified)
system.ruby.network.routers07.detour_counts            0                       (Unspecified)
system.ruby.network.routers07.regular_var            0                       (Unspecified)
system.ruby.network.routers07.risk_counts            0                       (Unspecified)
system.ruby.network.routers07.sw_input_arbiter_activity       892930                       (Unspecified)
system.ruby.network.routers07.sw_output_arbiter_activity       883439                       (Unspecified)
system.ruby.network.routers08.Var_1                 0                       (Unspecified)
system.ruby.network.routers08.Var_2                 0                       (Unspecified)
system.ruby.network.routers08.Var_3                 0                       (Unspecified)
system.ruby.network.routers08.all_counts            0                       (Unspecified)
system.ruby.network.routers08.buffer_reads       892529                       (Unspecified)
system.ruby.network.routers08.buffer_writes       892529                       (Unspecified)
system.ruby.network.routers08.crossbar_activity       892529                       (Unspecified)
system.ruby.network.routers08.detour_counts            0                       (Unspecified)
system.ruby.network.routers08.regular_var            0                       (Unspecified)
system.ruby.network.routers08.risk_counts            0                       (Unspecified)
system.ruby.network.routers08.sw_input_arbiter_activity       901752                       (Unspecified)
system.ruby.network.routers08.sw_output_arbiter_activity       892529                       (Unspecified)
system.ruby.network.routers09.Var_1                 0                       (Unspecified)
system.ruby.network.routers09.Var_2                 0                       (Unspecified)
system.ruby.network.routers09.Var_3                 0                       (Unspecified)
system.ruby.network.routers09.all_counts            0                       (Unspecified)
system.ruby.network.routers09.buffer_reads      1157578                       (Unspecified)
system.ruby.network.routers09.buffer_writes      1157578                       (Unspecified)
system.ruby.network.routers09.crossbar_activity      1157578                       (Unspecified)
system.ruby.network.routers09.detour_counts            0                       (Unspecified)
system.ruby.network.routers09.regular_var            0                       (Unspecified)
system.ruby.network.routers09.risk_counts            0                       (Unspecified)
system.ruby.network.routers09.sw_input_arbiter_activity      1172686                       (Unspecified)
system.ruby.network.routers09.sw_output_arbiter_activity      1157578                       (Unspecified)
system.ruby.network.routers10.Var_1                 0                       (Unspecified)
system.ruby.network.routers10.Var_2                 0                       (Unspecified)
system.ruby.network.routers10.Var_3                 0                       (Unspecified)
system.ruby.network.routers10.all_counts            0                       (Unspecified)
system.ruby.network.routers10.buffer_reads      1152298                       (Unspecified)
system.ruby.network.routers10.buffer_writes      1152298                       (Unspecified)
system.ruby.network.routers10.crossbar_activity      1152298                       (Unspecified)
system.ruby.network.routers10.detour_counts            0                       (Unspecified)
system.ruby.network.routers10.regular_var            0                       (Unspecified)
system.ruby.network.routers10.risk_counts            0                       (Unspecified)
system.ruby.network.routers10.sw_input_arbiter_activity      1166927                       (Unspecified)
system.ruby.network.routers10.sw_output_arbiter_activity      1152298                       (Unspecified)
system.ruby.network.routers11.Var_1                 0                       (Unspecified)
system.ruby.network.routers11.Var_2                 0                       (Unspecified)
system.ruby.network.routers11.Var_3                 0                       (Unspecified)
system.ruby.network.routers11.all_counts            0                       (Unspecified)
system.ruby.network.routers11.buffer_reads       878980                       (Unspecified)
system.ruby.network.routers11.buffer_writes       878980                       (Unspecified)
system.ruby.network.routers11.crossbar_activity       878980                       (Unspecified)
system.ruby.network.routers11.detour_counts            0                       (Unspecified)
system.ruby.network.routers11.regular_var            0                       (Unspecified)
system.ruby.network.routers11.risk_counts            0                       (Unspecified)
system.ruby.network.routers11.sw_input_arbiter_activity       887786                       (Unspecified)
system.ruby.network.routers11.sw_output_arbiter_activity       878980                       (Unspecified)
system.ruby.network.routers12.Var_1                 0                       (Unspecified)
system.ruby.network.routers12.Var_2                 0                       (Unspecified)
system.ruby.network.routers12.Var_3                 0                       (Unspecified)
system.ruby.network.routers12.all_counts            0                       (Unspecified)
system.ruby.network.routers12.buffer_reads       641881                       (Unspecified)
system.ruby.network.routers12.buffer_writes       641881                       (Unspecified)
system.ruby.network.routers12.crossbar_activity       641881                       (Unspecified)
system.ruby.network.routers12.detour_counts            0                       (Unspecified)
system.ruby.network.routers12.regular_var            0                       (Unspecified)
system.ruby.network.routers12.risk_counts            0                       (Unspecified)
system.ruby.network.routers12.sw_input_arbiter_activity       646128                       (Unspecified)
system.ruby.network.routers12.sw_output_arbiter_activity       641881                       (Unspecified)
system.ruby.network.routers13.Var_1                 0                       (Unspecified)
system.ruby.network.routers13.Var_2                 0                       (Unspecified)
system.ruby.network.routers13.Var_3                 0                       (Unspecified)
system.ruby.network.routers13.all_counts            0                       (Unspecified)
system.ruby.network.routers13.buffer_reads       903555                       (Unspecified)
system.ruby.network.routers13.buffer_writes       903555                       (Unspecified)
system.ruby.network.routers13.crossbar_activity       903555                       (Unspecified)
system.ruby.network.routers13.detour_counts            0                       (Unspecified)
system.ruby.network.routers13.regular_var            0                       (Unspecified)
system.ruby.network.routers13.risk_counts            0                       (Unspecified)
system.ruby.network.routers13.sw_input_arbiter_activity       913065                       (Unspecified)
system.ruby.network.routers13.sw_output_arbiter_activity       903555                       (Unspecified)
system.ruby.network.routers14.Var_1                 0                       (Unspecified)
system.ruby.network.routers14.Var_2                 0                       (Unspecified)
system.ruby.network.routers14.Var_3                 0                       (Unspecified)
system.ruby.network.routers14.all_counts            0                       (Unspecified)
system.ruby.network.routers14.buffer_reads       898153                       (Unspecified)
system.ruby.network.routers14.buffer_writes       898153                       (Unspecified)
system.ruby.network.routers14.crossbar_activity       898153                       (Unspecified)
system.ruby.network.routers14.detour_counts            0                       (Unspecified)
system.ruby.network.routers14.regular_var            0                       (Unspecified)
system.ruby.network.routers14.risk_counts            0                       (Unspecified)
system.ruby.network.routers14.sw_input_arbiter_activity       907522                       (Unspecified)
system.ruby.network.routers14.sw_output_arbiter_activity       898153                       (Unspecified)
system.ruby.network.routers15.Var_1                 0                       (Unspecified)
system.ruby.network.routers15.Var_2                 0                       (Unspecified)
system.ruby.network.routers15.Var_3                 0                       (Unspecified)
system.ruby.network.routers15.all_counts            0                       (Unspecified)
system.ruby.network.routers15.buffer_reads       636202                       (Unspecified)
system.ruby.network.routers15.buffer_writes       636202                       (Unspecified)
system.ruby.network.routers15.crossbar_activity       636202                       (Unspecified)
system.ruby.network.routers15.detour_counts            0                       (Unspecified)
system.ruby.network.routers15.regular_var            0                       (Unspecified)
system.ruby.network.routers15.risk_counts            0                       (Unspecified)
system.ruby.network.routers15.sw_input_arbiter_activity       640452                       (Unspecified)
system.ruby.network.routers15.sw_output_arbiter_activity       636202                       (Unspecified)

---------- End Simulation Statistics   ----------
