
---------- Begin Simulation Statistics ----------
simSeconds                                   0.005867                       # Number of seconds simulated (Second)
simTicks                                   5867114000                       # Number of ticks simulated (Tick)
finalTick                                  5867114000                       # Number of ticks from beginning of simulation (restored from checkpoints and never reset) (Tick)
simFreq                                  1000000000000                       # The number of ticks per simulated second ((Tick/Second))
hostSeconds                                   1069.77                       # Real time elapsed on the host (Second)
hostTickRate                                  5484455                       # The number of ticks simulated per host second (ticks/s) ((Tick/Second))
hostMemory                                   11459240                       # Number of bytes of host memory used (Byte)
simInsts                                     85729344                       # Number of instructions simulated (Count)
simOps                                      138890208                       # Number of ops (including micro ops) simulated (Count)
hostInstRate                                    80138                       # Simulator instruction rate (inst/s) ((Count/Second))
hostOpRate                                     129832                       # Simulator op (including micro ops) rate (op/s) ((Count/Second))
system.clk_domain.clock                          1000                       # Clock period in ticks (Tick)
system.cpu0.numCycles                        11639227                       # Number of cpu cycles simulated (Cycle)
system.cpu0.numWorkItemsStarted                     0                       # Number of work items this cpu started (Count)
system.cpu0.numWorkItemsCompleted                   0                       # Number of work items this cpu completed (Count)
system.cpu0.instsAdded                       10015336                       # Number of instructions added to the IQ (excludes non-spec) (Count)
system.cpu0.nonSpecInstsAdded                    1092                       # Number of non-speculative instructions added to the IQ (Count)
system.cpu0.instsIssued                       9511372                       # Number of instructions issued (Count)
system.cpu0.squashedInstsIssued                  2851                       # Number of squashed instructions issued (Count)
system.cpu0.squashedInstsExamined             1335790                       # Number of squashed instructions iterated over during squash; mainly for profiling (Count)
system.cpu0.squashedOperandsExamined          2774223                       # Number of squashed operands that are examined and possibly removed from graph (Count)
system.cpu0.squashedNonSpecRemoved                239                       # Number of squashed non-spec instructions that were removed (Count)
system.cpu0.numIssuedDist::samples           10489042                       # Number of insts issued each cycle (Count)
system.cpu0.numIssuedDist::mean              0.906791                       # Number of insts issued each cycle (Count)
system.cpu0.numIssuedDist::stdev             1.668606                       # Number of insts issued each cycle (Count)
system.cpu0.numIssuedDist::underflows               0      0.00%      0.00% # Number of insts issued each cycle (Count)
system.cpu0.numIssuedDist::0                  7530923     71.80%     71.80% # Number of insts issued each cycle (Count)
system.cpu0.numIssuedDist::1                   335285      3.20%     74.99% # Number of insts issued each cycle (Count)
system.cpu0.numIssuedDist::2                   747691      7.13%     82.12% # Number of insts issued each cycle (Count)
system.cpu0.numIssuedDist::3                   810532      7.73%     89.85% # Number of insts issued each cycle (Count)
system.cpu0.numIssuedDist::4                   505876      4.82%     94.67% # Number of insts issued each cycle (Count)
system.cpu0.numIssuedDist::5                   283833      2.71%     97.38% # Number of insts issued each cycle (Count)
system.cpu0.numIssuedDist::6                   158070      1.51%     98.89% # Number of insts issued each cycle (Count)
system.cpu0.numIssuedDist::7                    76636      0.73%     99.62% # Number of insts issued each cycle (Count)
system.cpu0.numIssuedDist::8                    40196      0.38%    100.00% # Number of insts issued each cycle (Count)
system.cpu0.numIssuedDist::overflows                0      0.00%    100.00% # Number of insts issued each cycle (Count)
system.cpu0.numIssuedDist::min_value                0                       # Number of insts issued each cycle (Count)
system.cpu0.numIssuedDist::max_value                8                       # Number of insts issued each cycle (Count)
system.cpu0.numIssuedDist::total             10489042                       # Number of insts issued each cycle (Count)
system.cpu0.statFuBusy::No_OpClass                  0      0.00%      0.00% # attempts to use FU when none available (Count)
system.cpu0.statFuBusy::IntAlu                  49906     69.19%     69.19% # attempts to use FU when none available (Count)
system.cpu0.statFuBusy::IntMult                     0      0.00%     69.19% # attempts to use FU when none available (Count)
system.cpu0.statFuBusy::IntDiv                      0      0.00%     69.19% # attempts to use FU when none available (Count)
system.cpu0.statFuBusy::FloatAdd                    0      0.00%     69.19% # attempts to use FU when none available (Count)
system.cpu0.statFuBusy::FloatCmp                    0      0.00%     69.19% # attempts to use FU when none available (Count)
system.cpu0.statFuBusy::FloatCvt                    2      0.00%     69.19% # attempts to use FU when none available (Count)
system.cpu0.statFuBusy::FloatMult                   0      0.00%     69.19% # attempts to use FU when none available (Count)
system.cpu0.statFuBusy::FloatMultAcc                0      0.00%     69.19% # attempts to use FU when none available (Count)
system.cpu0.statFuBusy::FloatDiv                    0      0.00%     69.19% # attempts to use FU when none available (Count)
system.cpu0.statFuBusy::FloatMisc                   0      0.00%     69.19% # attempts to use FU when none available (Count)
system.cpu0.statFuBusy::FloatSqrt                   0      0.00%     69.19% # attempts to use FU when none available (Count)
system.cpu0.statFuBusy::SimdAdd                     0      0.00%     69.19% # attempts to use FU when none available (Count)
system.cpu0.statFuBusy::SimdAddAcc                  0      0.00%     69.19% # attempts to use FU when none available (Count)
system.cpu0.statFuBusy::SimdAlu                   123      0.17%     69.36% # attempts to use FU when none available (Count)
system.cpu0.statFuBusy::SimdCmp                     0      0.00%     69.36% # attempts to use FU when none available (Count)
system.cpu0.statFuBusy::SimdCvt                   170      0.24%     69.60% # attempts to use FU when none available (Count)
system.cpu0.statFuBusy::SimdMisc                    0      0.00%     69.60% # attempts to use FU when none available (Count)
system.cpu0.statFuBusy::SimdMult                    0      0.00%     69.60% # attempts to use FU when none available (Count)
system.cpu0.statFuBusy::SimdMultAcc                 0      0.00%     69.60% # attempts to use FU when none available (Count)
system.cpu0.statFuBusy::SimdShift                 212      0.29%     69.89% # attempts to use FU when none available (Count)
system.cpu0.statFuBusy::SimdShiftAcc                0      0.00%     69.89% # attempts to use FU when none available (Count)
system.cpu0.statFuBusy::SimdDiv                     0      0.00%     69.89% # attempts to use FU when none available (Count)
system.cpu0.statFuBusy::SimdSqrt                    0      0.00%     69.89% # attempts to use FU when none available (Count)
system.cpu0.statFuBusy::SimdFloatAdd                0      0.00%     69.89% # attempts to use FU when none available (Count)
system.cpu0.statFuBusy::SimdFloatAlu                0      0.00%     69.89% # attempts to use FU when none available (Count)
system.cpu0.statFuBusy::SimdFloatCmp                0      0.00%     69.89% # attempts to use FU when none available (Count)
system.cpu0.statFuBusy::SimdFloatCvt                0      0.00%     69.89% # attempts to use FU when none available (Count)
system.cpu0.statFuBusy::SimdFloatDiv                0      0.00%     69.89% # attempts to use FU when none available (Count)
system.cpu0.statFuBusy::SimdFloatMisc               0      0.00%     69.89% # attempts to use FU when none available (Count)
system.cpu0.statFuBusy::SimdFloatMult               0      0.00%     69.89% # attempts to use FU when none available (Count)
system.cpu0.statFuBusy::SimdFloatMultAcc            0      0.00%     69.89% # attempts to use FU when none available (Count)
system.cpu0.statFuBusy::SimdFloatSqrt               0      0.00%     69.89% # attempts to use FU when none available (Count)
system.cpu0.statFuBusy::SimdReduceAdd               0      0.00%     69.89% # attempts to use FU when none available (Count)
system.cpu0.statFuBusy::SimdReduceAlu               0      0.00%     69.89% # attempts to use FU when none available (Count)
system.cpu0.statFuBusy::SimdReduceCmp               0      0.00%     69.89% # attempts to use FU when none available (Count)
system.cpu0.statFuBusy::SimdFloatReduceAdd            0      0.00%     69.89% # attempts to use FU when none available (Count)
system.cpu0.statFuBusy::SimdFloatReduceCmp            0      0.00%     69.89% # attempts to use FU when none available (Count)
system.cpu0.statFuBusy::SimdAes                     0      0.00%     69.89% # attempts to use FU when none available (Count)
system.cpu0.statFuBusy::SimdAesMix                  0      0.00%     69.89% # attempts to use FU when none available (Count)
system.cpu0.statFuBusy::SimdSha1Hash                0      0.00%     69.89% # attempts to use FU when none available (Count)
system.cpu0.statFuBusy::SimdSha1Hash2               0      0.00%     69.89% # attempts to use FU when none available (Count)
system.cpu0.statFuBusy::SimdSha256Hash              0      0.00%     69.89% # attempts to use FU when none available (Count)
system.cpu0.statFuBusy::SimdSha256Hash2             0      0.00%     69.89% # attempts to use FU when none available (Count)
system.cpu0.statFuBusy::SimdShaSigma2               0      0.00%     69.89% # attempts to use FU when none available (Count)
system.cpu0.statFuBusy::SimdShaSigma3               0      0.00%     69.89% # attempts to use FU when none available (Count)
system.cpu0.statFuBusy::SimdPredAlu                 0      0.00%     69.89% # attempts to use FU when none available (Count)
system.cpu0.statFuBusy::MemRead                 12074     16.74%     86.63% # attempts to use FU when none available (Count)
system.cpu0.statFuBusy::MemWrite                 7779     10.78%     97.42% # attempts to use FU when none available (Count)
system.cpu0.statFuBusy::FloatMemRead             1401      1.94%     99.36% # attempts to use FU when none available (Count)
system.cpu0.statFuBusy::FloatMemWrite             462      0.64%    100.00% # attempts to use FU when none available (Count)
system.cpu0.statFuBusy::IprAccess                   0      0.00%    100.00% # attempts to use FU when none available (Count)
system.cpu0.statFuBusy::InstPrefetch                0      0.00%    100.00% # attempts to use FU when none available (Count)
system.cpu0.statIssuedInstType_0::No_OpClass        44398      0.47%      0.47% # Number of instructions issued per FU type, per thread (Count)
system.cpu0.statIssuedInstType_0::IntAlu      8382412     88.13%     88.60% # Number of instructions issued per FU type, per thread (Count)
system.cpu0.statIssuedInstType_0::IntMult           35      0.00%     88.60% # Number of instructions issued per FU type, per thread (Count)
system.cpu0.statIssuedInstType_0::IntDiv        38633      0.41%     89.00% # Number of instructions issued per FU type, per thread (Count)
system.cpu0.statIssuedInstType_0::FloatAdd         4382      0.05%     89.05% # Number of instructions issued per FU type, per thread (Count)
system.cpu0.statIssuedInstType_0::FloatCmp            0      0.00%     89.05% # Number of instructions issued per FU type, per thread (Count)
system.cpu0.statIssuedInstType_0::FloatCvt         1676      0.02%     89.07% # Number of instructions issued per FU type, per thread (Count)
system.cpu0.statIssuedInstType_0::FloatMult            0      0.00%     89.07% # Number of instructions issued per FU type, per thread (Count)
system.cpu0.statIssuedInstType_0::FloatMultAcc            0      0.00%     89.07% # Number of instructions issued per FU type, per thread (Count)
system.cpu0.statIssuedInstType_0::FloatDiv            0      0.00%     89.07% # Number of instructions issued per FU type, per thread (Count)
system.cpu0.statIssuedInstType_0::FloatMisc            0      0.00%     89.07% # Number of instructions issued per FU type, per thread (Count)
system.cpu0.statIssuedInstType_0::FloatSqrt            0      0.00%     89.07% # Number of instructions issued per FU type, per thread (Count)
system.cpu0.statIssuedInstType_0::SimdAdd         8525      0.09%     89.16% # Number of instructions issued per FU type, per thread (Count)
system.cpu0.statIssuedInstType_0::SimdAddAcc            0      0.00%     89.16% # Number of instructions issued per FU type, per thread (Count)
system.cpu0.statIssuedInstType_0::SimdAlu        17256      0.18%     89.34% # Number of instructions issued per FU type, per thread (Count)
system.cpu0.statIssuedInstType_0::SimdCmp            0      0.00%     89.34% # Number of instructions issued per FU type, per thread (Count)
system.cpu0.statIssuedInstType_0::SimdCvt        18886      0.20%     89.54% # Number of instructions issued per FU type, per thread (Count)
system.cpu0.statIssuedInstType_0::SimdMisc         8989      0.09%     89.63% # Number of instructions issued per FU type, per thread (Count)
system.cpu0.statIssuedInstType_0::SimdMult            0      0.00%     89.63% # Number of instructions issued per FU type, per thread (Count)
system.cpu0.statIssuedInstType_0::SimdMultAcc            0      0.00%     89.63% # Number of instructions issued per FU type, per thread (Count)
system.cpu0.statIssuedInstType_0::SimdShift         2996      0.03%     89.66% # Number of instructions issued per FU type, per thread (Count)
system.cpu0.statIssuedInstType_0::SimdShiftAcc            0      0.00%     89.66% # Number of instructions issued per FU type, per thread (Count)
system.cpu0.statIssuedInstType_0::SimdDiv            0      0.00%     89.66% # Number of instructions issued per FU type, per thread (Count)
system.cpu0.statIssuedInstType_0::SimdSqrt            0      0.00%     89.66% # Number of instructions issued per FU type, per thread (Count)
system.cpu0.statIssuedInstType_0::SimdFloatAdd            0      0.00%     89.66% # Number of instructions issued per FU type, per thread (Count)
system.cpu0.statIssuedInstType_0::SimdFloatAlu            0      0.00%     89.66% # Number of instructions issued per FU type, per thread (Count)
system.cpu0.statIssuedInstType_0::SimdFloatCmp            0      0.00%     89.66% # Number of instructions issued per FU type, per thread (Count)
system.cpu0.statIssuedInstType_0::SimdFloatCvt            0      0.00%     89.66% # Number of instructions issued per FU type, per thread (Count)
system.cpu0.statIssuedInstType_0::SimdFloatDiv            0      0.00%     89.66% # Number of instructions issued per FU type, per thread (Count)
system.cpu0.statIssuedInstType_0::SimdFloatMisc            0      0.00%     89.66% # Number of instructions issued per FU type, per thread (Count)
system.cpu0.statIssuedInstType_0::SimdFloatMult            0      0.00%     89.66% # Number of instructions issued per FU type, per thread (Count)
system.cpu0.statIssuedInstType_0::SimdFloatMultAcc            0      0.00%     89.66% # Number of instructions issued per FU type, per thread (Count)
system.cpu0.statIssuedInstType_0::SimdFloatSqrt            0      0.00%     89.66% # Number of instructions issued per FU type, per thread (Count)
system.cpu0.statIssuedInstType_0::SimdReduceAdd            0      0.00%     89.66% # Number of instructions issued per FU type, per thread (Count)
system.cpu0.statIssuedInstType_0::SimdReduceAlu            0      0.00%     89.66% # Number of instructions issued per FU type, per thread (Count)
system.cpu0.statIssuedInstType_0::SimdReduceCmp            0      0.00%     89.66% # Number of instructions issued per FU type, per thread (Count)
system.cpu0.statIssuedInstType_0::SimdFloatReduceAdd            0      0.00%     89.66% # Number of instructions issued per FU type, per thread (Count)
system.cpu0.statIssuedInstType_0::SimdFloatReduceCmp            0      0.00%     89.66% # Number of instructions issued per FU type, per thread (Count)
system.cpu0.statIssuedInstType_0::SimdAes            0      0.00%     89.66% # Number of instructions issued per FU type, per thread (Count)
system.cpu0.statIssuedInstType_0::SimdAesMix            0      0.00%     89.66% # Number of instructions issued per FU type, per thread (Count)
system.cpu0.statIssuedInstType_0::SimdSha1Hash            0      0.00%     89.66% # Number of instructions issued per FU type, per thread (Count)
system.cpu0.statIssuedInstType_0::SimdSha1Hash2            0      0.00%     89.66% # Number of instructions issued per FU type, per thread (Count)
system.cpu0.statIssuedInstType_0::SimdSha256Hash            0      0.00%     89.66% # Number of instructions issued per FU type, per thread (Count)
system.cpu0.statIssuedInstType_0::SimdSha256Hash2            0      0.00%     89.66% # Number of instructions issued per FU type, per thread (Count)
system.cpu0.statIssuedInstType_0::SimdShaSigma2            0      0.00%     89.66% # Number of instructions issued per FU type, per thread (Count)
system.cpu0.statIssuedInstType_0::SimdShaSigma3            0      0.00%     89.66% # Number of instructions issued per FU type, per thread (Count)
system.cpu0.statIssuedInstType_0::SimdPredAlu            0      0.00%     89.66% # Number of instructions issued per FU type, per thread (Count)
system.cpu0.statIssuedInstType_0::MemRead       689464      7.25%     96.91% # Number of instructions issued per FU type, per thread (Count)
system.cpu0.statIssuedInstType_0::MemWrite       239291      2.52%     99.43% # Number of instructions issued per FU type, per thread (Count)
system.cpu0.statIssuedInstType_0::FloatMemRead        35250      0.37%     99.80% # Number of instructions issued per FU type, per thread (Count)
system.cpu0.statIssuedInstType_0::FloatMemWrite        19179      0.20%    100.00% # Number of instructions issued per FU type, per thread (Count)
system.cpu0.statIssuedInstType_0::IprAccess            0      0.00%    100.00% # Number of instructions issued per FU type, per thread (Count)
system.cpu0.statIssuedInstType_0::InstPrefetch            0      0.00%    100.00% # Number of instructions issued per FU type, per thread (Count)
system.cpu0.statIssuedInstType_0::total       9511372                       # Number of instructions issued per FU type, per thread (Count)
system.cpu0.issueRate                        0.817182                       # Inst issue rate ((Count/Cycle))
system.cpu0.fuBusy                              72129                       # FU busy when requested (Count)
system.cpu0.fuBusyRate                       0.007583                       # FU busy rate (busy events/executed inst) ((Count/Count))
system.cpu0.intInstQueueReads                29347517                       # Number of integer instruction queue reads (Count)
system.cpu0.intInstQueueWrites               11175402                       # Number of integer instruction queue writes (Count)
system.cpu0.intInstQueueWakeupAccesses        9314523                       # Number of integer instruction queue wakeup accesses (Count)
system.cpu0.fpInstQueueReads                   239249                       # Number of floating instruction queue reads (Count)
system.cpu0.fpInstQueueWrites                  182907                       # Number of floating instruction queue writes (Count)
system.cpu0.fpInstQueueWakeupAccesses          114028                       # Number of floating instruction queue wakeup accesses (Count)
system.cpu0.vecInstQueueReads                       0                       # Number of vector instruction queue reads (Count)
system.cpu0.vecInstQueueWrites                      0                       # Number of vector instruction queue writes (Count)
system.cpu0.vecInstQueueWakeupAccesses              0                       # Number of vector instruction queue wakeup accesses (Count)
system.cpu0.intAluAccesses                    9418439                       # Number of integer alu accesses (Count)
system.cpu0.fpAluAccesses                      120664                       # Number of floating point alu accesses (Count)
system.cpu0.vecAluAccesses                          0                       # Number of vector alu accesses (Count)
system.cpu0.numInsts                          9463404                       # Number of executed instructions (Count)
system.cpu0.numLoadInsts                       715552                       # Number of load instructions executed (Count)
system.cpu0.numSquashedInsts                    47968                       # Number of squashed instructions skipped in execute (Count)
system.cpu0.numSwp                                  0                       # Number of swp insts executed (Count)
system.cpu0.numNop                                  0                       # Number of nop insts executed (Count)
system.cpu0.numRefs                            971487                       # Number of memory reference insts executed (Count)
system.cpu0.numBranches                        656818                       # Number of branches executed (Count)
system.cpu0.numStoreInsts                      255935                       # Number of stores executed (Count)
system.cpu0.numRate                          0.813061                       # Inst execution rate ((Count/Cycle))
system.cpu0.timesIdled                           2357                       # Number of times that the entire CPU went into an idle state and unscheduled itself (Count)
system.cpu0.idleCycles                        1150185                       # Total number of cycles that the CPU has spent unscheduled due to idling (Cycle)
system.cpu0.committedInsts                    5358084                       # Number of Instructions Simulated (Count)
system.cpu0.committedOps                      8680638                       # Number of Ops (including micro ops) Simulated (Count)
system.cpu0.cpi                              2.172274                       # CPI: Cycles Per Instruction ((Cycle/Count))
system.cpu0.totalCpi                         2.172274                       # CPI: Total CPI of All Threads ((Cycle/Count))
system.cpu0.ipc                              0.460347                       # IPC: Instructions Per Cycle ((Count/Cycle))
system.cpu0.totalIpc                         0.460347                       # IPC: Total IPC of All Threads ((Count/Cycle))
system.cpu0.intRegfileReads                  15641475                       # Number of integer regfile reads (Count)
system.cpu0.intRegfileWrites                  7654756                       # Number of integer regfile writes (Count)
system.cpu0.fpRegfileReads                     153723                       # Number of floating regfile reads (Count)
system.cpu0.fpRegfileWrites                     85761                       # Number of floating regfile writes (Count)
system.cpu0.ccRegfileReads                    9393117                       # number of cc regfile reads (Count)
system.cpu0.ccRegfileWrites                   4969976                       # number of cc regfile writes (Count)
system.cpu0.miscRegfileReads                  2330083                       # number of misc regfile reads (Count)
system.cpu0.miscRegfileWrites                     846                       # number of misc regfile writes (Count)
system.cpu0.MemDepUnit__0.insertedLoads        787565                       # Number of loads inserted to the mem dependence unit. (Count)
system.cpu0.MemDepUnit__0.insertedStores       302026                       # Number of stores inserted to the mem dependence unit. (Count)
system.cpu0.MemDepUnit__0.conflictingLoads        67416                       # Number of conflicting loads. (Count)
system.cpu0.MemDepUnit__0.conflictingStores        47900                       # Number of conflicting stores. (Count)
system.cpu0.MemDepUnit__1.insertedLoads             0                       # Number of loads inserted to the mem dependence unit. (Count)
system.cpu0.MemDepUnit__1.insertedStores            0                       # Number of stores inserted to the mem dependence unit. (Count)
system.cpu0.MemDepUnit__1.conflictingLoads            0                       # Number of conflicting loads. (Count)
system.cpu0.MemDepUnit__1.conflictingStores            0                       # Number of conflicting stores. (Count)
system.cpu0.MemDepUnit__2.insertedLoads             0                       # Number of loads inserted to the mem dependence unit. (Count)
system.cpu0.MemDepUnit__2.insertedStores            0                       # Number of stores inserted to the mem dependence unit. (Count)
system.cpu0.MemDepUnit__2.conflictingLoads            0                       # Number of conflicting loads. (Count)
system.cpu0.MemDepUnit__2.conflictingStores            0                       # Number of conflicting stores. (Count)
system.cpu0.MemDepUnit__3.insertedLoads             0                       # Number of loads inserted to the mem dependence unit. (Count)
system.cpu0.MemDepUnit__3.insertedStores            0                       # Number of stores inserted to the mem dependence unit. (Count)
system.cpu0.MemDepUnit__3.conflictingLoads            0                       # Number of conflicting loads. (Count)
system.cpu0.MemDepUnit__3.conflictingStores            0                       # Number of conflicting stores. (Count)
system.cpu0.branchPred.lookups                 800640                       # Number of BP lookups (Count)
system.cpu0.branchPred.condPredicted           738172                       # Number of conditional branches predicted (Count)
system.cpu0.branchPred.condIncorrect            19677                       # Number of conditional branches incorrect (Count)
system.cpu0.branchPred.BTBLookups              526625                       # Number of BTB lookups (Count)
system.cpu0.branchPred.BTBUpdates                9409                       # Number of BTB updates (Count)
system.cpu0.branchPred.BTBHits                 522400                       # Number of BTB hits (Count)
system.cpu0.branchPred.BTBHitRatio           0.991977                       # BTB Hit Ratio (Ratio)
system.cpu0.branchPred.RASUsed                  14306                       # Number of times the RAS was used to get a target. (Count)
system.cpu0.branchPred.RASIncorrect                 8                       # Number of incorrect RAS predictions. (Count)
system.cpu0.branchPred.indirectLookups          10135                       # Number of indirect predictor lookups. (Count)
system.cpu0.branchPred.indirectHits              5324                       # Number of indirect target hits. (Count)
system.cpu0.branchPred.indirectMisses            4811                       # Number of indirect misses. (Count)
system.cpu0.branchPred.indirectMispredicted         1245                       # Number of mispredicted indirect branches. (Count)
system.cpu0.commit.commitSquashedInsts        1326607                       # The number of squashed insts skipped by commit (Count)
system.cpu0.commit.commitNonSpecStalls            853                       # The number of times commit has been forced to stall to communicate backwards (Count)
system.cpu0.commit.branchMispredicts            20936                       # The number of times a branch was mispredicted (Count)
system.cpu0.commit.numCommittedDist::samples     10298767                       # Number of insts commited each cycle (Count)
system.cpu0.commit.numCommittedDist::mean     0.842881                       # Number of insts commited each cycle (Count)
system.cpu0.commit.numCommittedDist::stdev     1.950245                       # Number of insts commited each cycle (Count)
system.cpu0.commit.numCommittedDist::underflows            0      0.00%      0.00% # Number of insts commited each cycle (Count)
system.cpu0.commit.numCommittedDist::0        7675080     74.52%     74.52% # Number of insts commited each cycle (Count)
system.cpu0.commit.numCommittedDist::1         945688      9.18%     83.71% # Number of insts commited each cycle (Count)
system.cpu0.commit.numCommittedDist::2         529195      5.14%     88.85% # Number of insts commited each cycle (Count)
system.cpu0.commit.numCommittedDist::3         251914      2.45%     91.29% # Number of insts commited each cycle (Count)
system.cpu0.commit.numCommittedDist::4          50658      0.49%     91.78% # Number of insts commited each cycle (Count)
system.cpu0.commit.numCommittedDist::5         319071      3.10%     94.88% # Number of insts commited each cycle (Count)
system.cpu0.commit.numCommittedDist::6          24592      0.24%     95.12% # Number of insts commited each cycle (Count)
system.cpu0.commit.numCommittedDist::7          45273      0.44%     95.56% # Number of insts commited each cycle (Count)
system.cpu0.commit.numCommittedDist::8         457296      4.44%    100.00% # Number of insts commited each cycle (Count)
system.cpu0.commit.numCommittedDist::overflows            0      0.00%    100.00% # Number of insts commited each cycle (Count)
system.cpu0.commit.numCommittedDist::min_value            0                       # Number of insts commited each cycle (Count)
system.cpu0.commit.numCommittedDist::max_value            8                       # Number of insts commited each cycle (Count)
system.cpu0.commit.numCommittedDist::total     10298767                       # Number of insts commited each cycle (Count)
system.cpu0.commit.instsCommitted             5358084                       # Number of instructions committed (Count)
system.cpu0.commit.opsCommitted               8680638                       # Number of ops (including micro ops) committed (Count)
system.cpu0.commit.memRefs                     815199                       # Number of memory references committed (Count)
system.cpu0.commit.loads                       589160                       # Number of loads committed (Count)
system.cpu0.commit.amos                             0                       # Number of atomic instructions committed (Count)
system.cpu0.commit.membars                          2                       # Number of memory barriers committed (Count)
system.cpu0.commit.branches                    608725                       # Number of branches committed (Count)
system.cpu0.commit.vectorInstructions               0                       # Number of committed Vector instructions. (Count)
system.cpu0.commit.floating                     82703                       # Number of committed floating point instructions. (Count)
system.cpu0.commit.integer                    8591867                       # Number of committed integer instructions. (Count)
system.cpu0.commit.functionCalls                10325                       # Number of function calls committed. (Count)
system.cpu0.commit.committedInstType_0::No_OpClass        36298      0.42%      0.42% # Class of committed instruction (Count)
system.cpu0.commit.committedInstType_0::IntAlu      7747007     89.24%     89.66% # Class of committed instruction (Count)
system.cpu0.commit.committedInstType_0::IntMult           29      0.00%     89.66% # Class of committed instruction (Count)
system.cpu0.commit.committedInstType_0::IntDiv        36267      0.42%     90.08% # Class of committed instruction (Count)
system.cpu0.commit.committedInstType_0::FloatAdd         3202      0.04%     90.12% # Class of committed instruction (Count)
system.cpu0.commit.committedInstType_0::FloatCmp            0      0.00%     90.12% # Class of committed instruction (Count)
system.cpu0.commit.committedInstType_0::FloatCvt         1504      0.02%     90.14% # Class of committed instruction (Count)
system.cpu0.commit.committedInstType_0::FloatMult            0      0.00%     90.14% # Class of committed instruction (Count)
system.cpu0.commit.committedInstType_0::FloatMultAcc            0      0.00%     90.14% # Class of committed instruction (Count)
system.cpu0.commit.committedInstType_0::FloatDiv            0      0.00%     90.14% # Class of committed instruction (Count)
system.cpu0.commit.committedInstType_0::FloatMisc            0      0.00%     90.14% # Class of committed instruction (Count)
system.cpu0.commit.committedInstType_0::FloatSqrt            0      0.00%     90.14% # Class of committed instruction (Count)
system.cpu0.commit.committedInstType_0::SimdAdd         6750      0.08%     90.21% # Class of committed instruction (Count)
system.cpu0.commit.committedInstType_0::SimdAddAcc            0      0.00%     90.21% # Class of committed instruction (Count)
system.cpu0.commit.committedInstType_0::SimdAlu        12220      0.14%     90.35% # Class of committed instruction (Count)
system.cpu0.commit.committedInstType_0::SimdCmp            0      0.00%     90.35% # Class of committed instruction (Count)
system.cpu0.commit.committedInstType_0::SimdCvt        13196      0.15%     90.51% # Class of committed instruction (Count)
system.cpu0.commit.committedInstType_0::SimdMisc         7208      0.08%     90.59% # Class of committed instruction (Count)
system.cpu0.commit.committedInstType_0::SimdMult            0      0.00%     90.59% # Class of committed instruction (Count)
system.cpu0.commit.committedInstType_0::SimdMultAcc            0      0.00%     90.59% # Class of committed instruction (Count)
system.cpu0.commit.committedInstType_0::SimdShift         1758      0.02%     90.61% # Class of committed instruction (Count)
system.cpu0.commit.committedInstType_0::SimdShiftAcc            0      0.00%     90.61% # Class of committed instruction (Count)
system.cpu0.commit.committedInstType_0::SimdDiv            0      0.00%     90.61% # Class of committed instruction (Count)
system.cpu0.commit.committedInstType_0::SimdSqrt            0      0.00%     90.61% # Class of committed instruction (Count)
system.cpu0.commit.committedInstType_0::SimdFloatAdd            0      0.00%     90.61% # Class of committed instruction (Count)
system.cpu0.commit.committedInstType_0::SimdFloatAlu            0      0.00%     90.61% # Class of committed instruction (Count)
system.cpu0.commit.committedInstType_0::SimdFloatCmp            0      0.00%     90.61% # Class of committed instruction (Count)
system.cpu0.commit.committedInstType_0::SimdFloatCvt            0      0.00%     90.61% # Class of committed instruction (Count)
system.cpu0.commit.committedInstType_0::SimdFloatDiv            0      0.00%     90.61% # Class of committed instruction (Count)
system.cpu0.commit.committedInstType_0::SimdFloatMisc            0      0.00%     90.61% # Class of committed instruction (Count)
system.cpu0.commit.committedInstType_0::SimdFloatMult            0      0.00%     90.61% # Class of committed instruction (Count)
system.cpu0.commit.committedInstType_0::SimdFloatMultAcc            0      0.00%     90.61% # Class of committed instruction (Count)
system.cpu0.commit.committedInstType_0::SimdFloatSqrt            0      0.00%     90.61% # Class of committed instruction (Count)
system.cpu0.commit.committedInstType_0::SimdReduceAdd            0      0.00%     90.61% # Class of committed instruction (Count)
system.cpu0.commit.committedInstType_0::SimdReduceAlu            0      0.00%     90.61% # Class of committed instruction (Count)
system.cpu0.commit.committedInstType_0::SimdReduceCmp            0      0.00%     90.61% # Class of committed instruction (Count)
system.cpu0.commit.committedInstType_0::SimdFloatReduceAdd            0      0.00%     90.61% # Class of committed instruction (Count)
system.cpu0.commit.committedInstType_0::SimdFloatReduceCmp            0      0.00%     90.61% # Class of committed instruction (Count)
system.cpu0.commit.committedInstType_0::SimdAes            0      0.00%     90.61% # Class of committed instruction (Count)
system.cpu0.commit.committedInstType_0::SimdAesMix            0      0.00%     90.61% # Class of committed instruction (Count)
system.cpu0.commit.committedInstType_0::SimdSha1Hash            0      0.00%     90.61% # Class of committed instruction (Count)
system.cpu0.commit.committedInstType_0::SimdSha1Hash2            0      0.00%     90.61% # Class of committed instruction (Count)
system.cpu0.commit.committedInstType_0::SimdSha256Hash            0      0.00%     90.61% # Class of committed instruction (Count)
system.cpu0.commit.committedInstType_0::SimdSha256Hash2            0      0.00%     90.61% # Class of committed instruction (Count)
system.cpu0.commit.committedInstType_0::SimdShaSigma2            0      0.00%     90.61% # Class of committed instruction (Count)
system.cpu0.commit.committedInstType_0::SimdShaSigma3            0      0.00%     90.61% # Class of committed instruction (Count)
system.cpu0.commit.committedInstType_0::SimdPredAlu            0      0.00%     90.61% # Class of committed instruction (Count)
system.cpu0.commit.committedInstType_0::MemRead       567561      6.54%     97.15% # Class of committed instruction (Count)
system.cpu0.commit.committedInstType_0::MemWrite       211673      2.44%     99.59% # Class of committed instruction (Count)
system.cpu0.commit.committedInstType_0::FloatMemRead        21599      0.25%     99.83% # Class of committed instruction (Count)
system.cpu0.commit.committedInstType_0::FloatMemWrite        14366      0.17%    100.00% # Class of committed instruction (Count)
system.cpu0.commit.committedInstType_0::IprAccess            0      0.00%    100.00% # Class of committed instruction (Count)
system.cpu0.commit.committedInstType_0::InstPrefetch            0      0.00%    100.00% # Class of committed instruction (Count)
system.cpu0.commit.committedInstType_0::total      8680638                       # Class of committed instruction (Count)
system.cpu0.commit.commitEligibleSamples       457296                       # number cycles where commit BW limit reached (Cycle)
system.cpu0.decode.idleCycles                  679133                       # Number of cycles decode is idle (Cycle)
system.cpu0.decode.blockedCycles              8389755                       # Number of cycles decode is blocked (Cycle)
system.cpu0.decode.runCycles                   722283                       # Number of cycles decode is running (Cycle)
system.cpu0.decode.unblockCycles               670276                       # Number of cycles decode is unblocking (Cycle)
system.cpu0.decode.squashCycles                 27595                       # Number of cycles decode is squashing (Cycle)
system.cpu0.decode.branchResolved              495103                       # Number of times decode resolved a branch (Count)
system.cpu0.decode.branchMispred                 1221                       # Number of times decode detected a branch misprediction (Count)
system.cpu0.decode.decodedInsts              10327947                       # Number of instructions handled by decode (Count)
system.cpu0.decode.squashedInsts                 5724                       # Number of squashed instructions handled by decode (Count)
system.cpu0.fetch.icacheStallCycles            832548                       # Number of cycles fetch is stalled on an Icache miss (Cycle)
system.cpu0.fetch.insts                       6518999                       # Number of instructions fetch has processed (Count)
system.cpu0.fetch.branches                     800640                       # Number of branches that fetch encountered (Count)
system.cpu0.fetch.predictedBranches            542030                       # Number of branches that fetch has predicted taken (Count)
system.cpu0.fetch.cycles                      9396971                       # Number of cycles fetch has run and was not squashing or blocked (Cycle)
system.cpu0.fetch.squashCycles                  57584                       # Number of cycles fetch has spent squashing (Cycle)
system.cpu0.fetch.miscStallCycles               13980                       # Number of cycles fetch has spent waiting on interrupts, or bad addresses, or out of MSHRs (Cycle)
system.cpu0.fetch.pendingTrapStallCycles        16568                       # Number of stall cycles due to pending traps (Cycle)
system.cpu0.fetch.icacheWaitRetryStallCycles       200183                       # Number of stall cycles due to full MSHR (Cycle)
system.cpu0.fetch.cacheLines                   639008                       # Number of cache lines fetched (Count)
system.cpu0.fetch.icacheSquashes                 7034                       # Number of outstanding Icache misses that were squashed (Count)
system.cpu0.fetch.nisnDist::samples          10489042                       # Number of instructions fetched each cycle (Total) (Count)
system.cpu0.fetch.nisnDist::mean             1.029308                       # Number of instructions fetched each cycle (Total) (Count)
system.cpu0.fetch.nisnDist::stdev            2.437639                       # Number of instructions fetched each cycle (Total) (Count)
system.cpu0.fetch.nisnDist::underflows              0      0.00%      0.00% # Number of instructions fetched each cycle (Total) (Count)
system.cpu0.fetch.nisnDist::0                 8620886     82.19%     82.19% # Number of instructions fetched each cycle (Total) (Count)
system.cpu0.fetch.nisnDist::1                  100368      0.96%     83.15% # Number of instructions fetched each cycle (Total) (Count)
system.cpu0.fetch.nisnDist::2                  163462      1.56%     84.70% # Number of instructions fetched each cycle (Total) (Count)
system.cpu0.fetch.nisnDist::3                  163328      1.56%     86.26% # Number of instructions fetched each cycle (Total) (Count)
system.cpu0.fetch.nisnDist::4                  223627      2.13%     88.39% # Number of instructions fetched each cycle (Total) (Count)
system.cpu0.fetch.nisnDist::5                  138686      1.32%     89.72% # Number of instructions fetched each cycle (Total) (Count)
system.cpu0.fetch.nisnDist::6                  103993      0.99%     90.71% # Number of instructions fetched each cycle (Total) (Count)
system.cpu0.fetch.nisnDist::7                  130250      1.24%     91.95% # Number of instructions fetched each cycle (Total) (Count)
system.cpu0.fetch.nisnDist::8                  844442      8.05%    100.00% # Number of instructions fetched each cycle (Total) (Count)
system.cpu0.fetch.nisnDist::overflows               0      0.00%    100.00% # Number of instructions fetched each cycle (Total) (Count)
system.cpu0.fetch.nisnDist::min_value               0                       # Number of instructions fetched each cycle (Total) (Count)
system.cpu0.fetch.nisnDist::max_value               8                       # Number of instructions fetched each cycle (Total) (Count)
system.cpu0.fetch.nisnDist::total            10489042                       # Number of instructions fetched each cycle (Total) (Count)
system.cpu0.fetch.branchRate                 0.068788                       # Number of branch fetches per cycle (Ratio)
system.cpu0.fetch.rate                       0.560089                       # Number of inst fetches per cycle ((Count/Cycle))
system.cpu0.iew.idleCycles                          0                       # Number of cycles IEW is idle (Cycle)
system.cpu0.iew.squashCycles                    27595                       # Number of cycles IEW is squashing (Cycle)
system.cpu0.iew.blockCycles                   4993879                       # Number of cycles IEW is blocking (Cycle)
system.cpu0.iew.unblockCycles                  153733                       # Number of cycles IEW is unblocking (Cycle)
system.cpu0.iew.dispatchedInsts              10016428                       # Number of instructions dispatched to IQ (Count)
system.cpu0.iew.dispSquashedInsts                6222                       # Number of squashed instructions skipped by dispatch (Count)
system.cpu0.iew.dispLoadInsts                  787565                       # Number of dispatched load instructions (Count)
system.cpu0.iew.dispStoreInsts                 302026                       # Number of dispatched store instructions (Count)
system.cpu0.iew.dispNonSpecInsts                  898                       # Number of dispatched non-speculative instructions (Count)
system.cpu0.iew.iqFullEvents                     7399                       # Number of times the IQ has become full, causing a stall (Count)
system.cpu0.iew.lsqFullEvents                  141149                       # Number of times the LSQ has become full, causing a stall (Count)
system.cpu0.iew.memOrderViolationEvents          6100                       # Number of memory order violations (Count)
system.cpu0.iew.predictedTakenIncorrect          9671                       # Number of branches that were predicted taken incorrectly (Count)
system.cpu0.iew.predictedNotTakenIncorrect        13517                       # Number of branches that were predicted not taken incorrectly (Count)
system.cpu0.iew.branchMispredicts               23188                       # Number of branch mispredicts detected at execute (Count)
system.cpu0.iew.instsToCommit                 9442121                       # Cumulative count of insts sent to commit (Count)
system.cpu0.iew.writebackCount                9428551                       # Cumulative count of insts written-back (Count)
system.cpu0.iew.producerInst                  8027813                       # Number of instructions producing a value (Count)
system.cpu0.iew.consumerInst                 18603198                       # Number of instructions consuming a value (Count)
system.cpu0.iew.wbRate                       0.810067                       # Insts written-back per cycle ((Count/Cycle))
system.cpu0.iew.wbFanout                     0.431529                       # Average fanout of values written-back ((Count/Count))
system.cpu0.interrupts.clk_domain.clock          8000                       # Clock period in ticks (Tick)
system.cpu0.lsq0.forwLoads                      59435                       # Number of loads that had data forwarded from stores (Count)
system.cpu0.lsq0.squashedLoads                 198405                       # Number of loads squashed (Count)
system.cpu0.lsq0.ignoredResponses                  99                       # Number of memory responses ignored because the instruction is squashed (Count)
system.cpu0.lsq0.memOrderViolation               6100                       # Number of memory ordering violations (Count)
system.cpu0.lsq0.squashedStores                 75987                       # Number of stores squashed (Count)
system.cpu0.lsq0.rescheduledLoads                 397                       # Number of loads that were rescheduled (Count)
system.cpu0.lsq0.blockedByCache                  2088                       # Number of times an access to memory failed due to the cache being blocked (Count)
system.cpu0.lsq0.loadToUse::samples            589082                       # Distribution of cycle latency between the first time a load is issued and its completion (Unspecified)
system.cpu0.lsq0.loadToUse::mean            54.963309                       # Distribution of cycle latency between the first time a load is issued and its completion (Unspecified)
system.cpu0.lsq0.loadToUse::stdev          197.483222                       # Distribution of cycle latency between the first time a load is issued and its completion (Unspecified)
system.cpu0.lsq0.loadToUse::0-9                543526     92.27%     92.27% # Distribution of cycle latency between the first time a load is issued and its completion (Unspecified)
system.cpu0.lsq0.loadToUse::10-19                  84      0.01%     92.28% # Distribution of cycle latency between the first time a load is issued and its completion (Unspecified)
system.cpu0.lsq0.loadToUse::20-29                  96      0.02%     92.30% # Distribution of cycle latency between the first time a load is issued and its completion (Unspecified)
system.cpu0.lsq0.loadToUse::30-39                 105      0.02%     92.31% # Distribution of cycle latency between the first time a load is issued and its completion (Unspecified)
system.cpu0.lsq0.loadToUse::40-49                  77      0.01%     92.33% # Distribution of cycle latency between the first time a load is issued and its completion (Unspecified)
system.cpu0.lsq0.loadToUse::50-59                 163      0.03%     92.36% # Distribution of cycle latency between the first time a load is issued and its completion (Unspecified)
system.cpu0.lsq0.loadToUse::60-69                  91      0.02%     92.37% # Distribution of cycle latency between the first time a load is issued and its completion (Unspecified)
system.cpu0.lsq0.loadToUse::70-79                  84      0.01%     92.39% # Distribution of cycle latency between the first time a load is issued and its completion (Unspecified)
system.cpu0.lsq0.loadToUse::80-89                  81      0.01%     92.40% # Distribution of cycle latency between the first time a load is issued and its completion (Unspecified)
system.cpu0.lsq0.loadToUse::90-99                  91      0.02%     92.41% # Distribution of cycle latency between the first time a load is issued and its completion (Unspecified)
system.cpu0.lsq0.loadToUse::100-109                90      0.02%     92.43% # Distribution of cycle latency between the first time a load is issued and its completion (Unspecified)
system.cpu0.lsq0.loadToUse::110-119                64      0.01%     92.44% # Distribution of cycle latency between the first time a load is issued and its completion (Unspecified)
system.cpu0.lsq0.loadToUse::120-129                54      0.01%     92.45% # Distribution of cycle latency between the first time a load is issued and its completion (Unspecified)
system.cpu0.lsq0.loadToUse::130-139                37      0.01%     92.46% # Distribution of cycle latency between the first time a load is issued and its completion (Unspecified)
system.cpu0.lsq0.loadToUse::140-149                56      0.01%     92.47% # Distribution of cycle latency between the first time a load is issued and its completion (Unspecified)
system.cpu0.lsq0.loadToUse::150-159                44      0.01%     92.47% # Distribution of cycle latency between the first time a load is issued and its completion (Unspecified)
system.cpu0.lsq0.loadToUse::160-169                84      0.01%     92.49% # Distribution of cycle latency between the first time a load is issued and its completion (Unspecified)
system.cpu0.lsq0.loadToUse::170-179               136      0.02%     92.51% # Distribution of cycle latency between the first time a load is issued and its completion (Unspecified)
system.cpu0.lsq0.loadToUse::180-189               588      0.10%     92.61% # Distribution of cycle latency between the first time a load is issued and its completion (Unspecified)
system.cpu0.lsq0.loadToUse::190-199                33      0.01%     92.62% # Distribution of cycle latency between the first time a load is issued and its completion (Unspecified)
system.cpu0.lsq0.loadToUse::200-209                57      0.01%     92.63% # Distribution of cycle latency between the first time a load is issued and its completion (Unspecified)
system.cpu0.lsq0.loadToUse::210-219                86      0.01%     92.64% # Distribution of cycle latency between the first time a load is issued and its completion (Unspecified)
system.cpu0.lsq0.loadToUse::220-229               132      0.02%     92.66% # Distribution of cycle latency between the first time a load is issued and its completion (Unspecified)
system.cpu0.lsq0.loadToUse::230-239               162      0.03%     92.69% # Distribution of cycle latency between the first time a load is issued and its completion (Unspecified)
system.cpu0.lsq0.loadToUse::240-249              1076      0.18%     92.87% # Distribution of cycle latency between the first time a load is issued and its completion (Unspecified)
system.cpu0.lsq0.loadToUse::250-259                54      0.01%     92.88% # Distribution of cycle latency between the first time a load is issued and its completion (Unspecified)
system.cpu0.lsq0.loadToUse::260-269                52      0.01%     92.89% # Distribution of cycle latency between the first time a load is issued and its completion (Unspecified)
system.cpu0.lsq0.loadToUse::270-279                82      0.01%     92.90% # Distribution of cycle latency between the first time a load is issued and its completion (Unspecified)
system.cpu0.lsq0.loadToUse::280-289               171      0.03%     92.93% # Distribution of cycle latency between the first time a load is issued and its completion (Unspecified)
system.cpu0.lsq0.loadToUse::290-299               266      0.05%     92.98% # Distribution of cycle latency between the first time a load is issued and its completion (Unspecified)
system.cpu0.lsq0.loadToUse::overflows           41360      7.02%    100.00% # Distribution of cycle latency between the first time a load is issued and its completion (Unspecified)
system.cpu0.lsq0.loadToUse::min_value               2                       # Distribution of cycle latency between the first time a load is issued and its completion (Unspecified)
system.cpu0.lsq0.loadToUse::max_value            2437                       # Distribution of cycle latency between the first time a load is issued and its completion (Unspecified)
system.cpu0.lsq0.loadToUse::total              589082                       # Distribution of cycle latency between the first time a load is issued and its completion (Unspecified)
system.cpu0.mmu.dtb.rdAccesses                 710014                       # TLB accesses on read requests (Count)
system.cpu0.mmu.dtb.wrAccesses                 255945                       # TLB accesses on write requests (Count)
system.cpu0.mmu.dtb.rdMisses                     3150                       # TLB misses on read requests (Count)
system.cpu0.mmu.dtb.wrMisses                      418                       # TLB misses on write requests (Count)
system.cpu0.mmu.dtb.walker.power_state.pwrStateResidencyTicks::UNDEFINED   5867114000                       # Cumulative time (in ticks) in various power states (Tick)
system.cpu0.mmu.itb.rdAccesses                      0                       # TLB accesses on read requests (Count)
system.cpu0.mmu.itb.wrAccesses                 641553                       # TLB accesses on write requests (Count)
system.cpu0.mmu.itb.rdMisses                        0                       # TLB misses on read requests (Count)
system.cpu0.mmu.itb.wrMisses                     3118                       # TLB misses on write requests (Count)
system.cpu0.mmu.itb.walker.power_state.pwrStateResidencyTicks::UNDEFINED   5867114000                       # Cumulative time (in ticks) in various power states (Tick)
system.cpu0.power_state.pwrStateResidencyTicks::ON   5867114000                       # Cumulative time (in ticks) in various power states (Tick)
system.cpu0.rename.squashCycles                 27595                       # Number of cycles rename is squashing (Cycle)
system.cpu0.rename.idleCycles                  923728                       # Number of cycles rename is idle (Cycle)
system.cpu0.rename.blockCycles                6600412                       # Number of cycles rename is blocking (Cycle)
system.cpu0.rename.serializeStallCycles         21998                       # count of cycles rename stalled for serializing inst (Cycle)
system.cpu0.rename.runCycles                  1131339                       # Number of cycles rename is running (Cycle)
system.cpu0.rename.unblockCycles              1783970                       # Number of cycles rename is unblocking (Cycle)
system.cpu0.rename.renamedInsts              10185933                       # Number of instructions processed by rename (Count)
system.cpu0.rename.ROBFullEvents               107020                       # Number of times rename has blocked due to ROB full (Count)
system.cpu0.rename.IQFullEvents                915583                       # Number of times rename has blocked due to IQ full (Count)
system.cpu0.rename.LQFullEvents                148209                       # Number of times rename has blocked due to LQ full (Count)
system.cpu0.rename.SQFullEvents                507802                       # Number of times rename has blocked due to SQ full (Count)
system.cpu0.rename.fullRegistersEvents           2821                       # Number of times there has been no free registers (Count)
system.cpu0.rename.renamedOperands           22648035                       # Number of destination operands rename has renamed (Count)
system.cpu0.rename.lookups                   43179870                       # Number of register rename lookups that rename has made (Count)
system.cpu0.rename.intLookups                16943967                       # Number of integer rename lookups (Count)
system.cpu0.rename.fpLookups                   192509                       # Number of floating rename lookups (Count)
system.cpu0.rename.committedMaps             19750746                       # Number of HB maps that are committed (Count)
system.cpu0.rename.undoneMaps                 2897289                       # Number of HB maps that are undone due to squashing (Count)
system.cpu0.rename.serializing                    874                       # count of serializing insts renamed (Count)
system.cpu0.rename.tempSerializing                859                       # count of temporary serializing insts renamed (Count)
system.cpu0.rename.skidInsts                  3093992                       # count of insts added to the skid buffer (Count)
system.cpu0.rob.reads                        19840994                       # The number of ROB reads (Count)
system.cpu0.rob.writes                       20205005                       # The number of ROB writes (Count)
system.cpu0.thread_0.numInsts                 5358084                       # Number of Instructions committed (Count)
system.cpu0.thread_0.numOps                   8680638                       # Number of Ops committed (Count)
system.cpu0.thread_0.numMemRefs                     0                       # Number of Memory References (Count)
system.cpu0.workload.numSyscalls                   63                       # Number of system calls (Count)
system.cpu1.numCycles                        11144961                       # Number of cpu cycles simulated (Cycle)
system.cpu1.numWorkItemsStarted                     0                       # Number of work items this cpu started (Count)
system.cpu1.numWorkItemsCompleted                   0                       # Number of work items this cpu completed (Count)
system.cpu1.instsAdded                       10015296                       # Number of instructions added to the IQ (excludes non-spec) (Count)
system.cpu1.nonSpecInstsAdded                    1092                       # Number of non-speculative instructions added to the IQ (Count)
system.cpu1.instsIssued                       9511127                       # Number of instructions issued (Count)
system.cpu1.squashedInstsIssued                  2916                       # Number of squashed instructions issued (Count)
system.cpu1.squashedInstsExamined             1335750                       # Number of squashed instructions iterated over during squash; mainly for profiling (Count)
system.cpu1.squashedOperandsExamined          2776603                       # Number of squashed operands that are examined and possibly removed from graph (Count)
system.cpu1.squashedNonSpecRemoved                239                       # Number of squashed non-spec instructions that were removed (Count)
system.cpu1.numIssuedDist::samples           10089749                       # Number of insts issued each cycle (Count)
system.cpu1.numIssuedDist::mean              0.942652                       # Number of insts issued each cycle (Count)
system.cpu1.numIssuedDist::stdev             1.691350                       # Number of insts issued each cycle (Count)
system.cpu1.numIssuedDist::underflows               0      0.00%      0.00% # Number of insts issued each cycle (Count)
system.cpu1.numIssuedDist::0                  7131995     70.69%     70.69% # Number of insts issued each cycle (Count)
system.cpu1.numIssuedDist::1                   334755      3.32%     74.00% # Number of insts issued each cycle (Count)
system.cpu1.numIssuedDist::2                   747993      7.41%     81.42% # Number of insts issued each cycle (Count)
system.cpu1.numIssuedDist::3                   810325      8.03%     89.45% # Number of insts issued each cycle (Count)
system.cpu1.numIssuedDist::4                   505980      5.01%     94.46% # Number of insts issued each cycle (Count)
system.cpu1.numIssuedDist::5                   283733      2.81%     97.27% # Number of insts issued each cycle (Count)
system.cpu1.numIssuedDist::6                   158121      1.57%     98.84% # Number of insts issued each cycle (Count)
system.cpu1.numIssuedDist::7                    76676      0.76%     99.60% # Number of insts issued each cycle (Count)
system.cpu1.numIssuedDist::8                    40171      0.40%    100.00% # Number of insts issued each cycle (Count)
system.cpu1.numIssuedDist::overflows                0      0.00%    100.00% # Number of insts issued each cycle (Count)
system.cpu1.numIssuedDist::min_value                0                       # Number of insts issued each cycle (Count)
system.cpu1.numIssuedDist::max_value                8                       # Number of insts issued each cycle (Count)
system.cpu1.numIssuedDist::total             10089749                       # Number of insts issued each cycle (Count)
system.cpu1.statFuBusy::No_OpClass                  0      0.00%      0.00% # attempts to use FU when none available (Count)
system.cpu1.statFuBusy::IntAlu                  49963     69.20%     69.20% # attempts to use FU when none available (Count)
system.cpu1.statFuBusy::IntMult                     0      0.00%     69.20% # attempts to use FU when none available (Count)
system.cpu1.statFuBusy::IntDiv                      0      0.00%     69.20% # attempts to use FU when none available (Count)
system.cpu1.statFuBusy::FloatAdd                    0      0.00%     69.20% # attempts to use FU when none available (Count)
system.cpu1.statFuBusy::FloatCmp                    0      0.00%     69.20% # attempts to use FU when none available (Count)
system.cpu1.statFuBusy::FloatCvt                    0      0.00%     69.20% # attempts to use FU when none available (Count)
system.cpu1.statFuBusy::FloatMult                   0      0.00%     69.20% # attempts to use FU when none available (Count)
system.cpu1.statFuBusy::FloatMultAcc                0      0.00%     69.20% # attempts to use FU when none available (Count)
system.cpu1.statFuBusy::FloatDiv                    0      0.00%     69.20% # attempts to use FU when none available (Count)
system.cpu1.statFuBusy::FloatMisc                   0      0.00%     69.20% # attempts to use FU when none available (Count)
system.cpu1.statFuBusy::FloatSqrt                   0      0.00%     69.20% # attempts to use FU when none available (Count)
system.cpu1.statFuBusy::SimdAdd                     0      0.00%     69.20% # attempts to use FU when none available (Count)
system.cpu1.statFuBusy::SimdAddAcc                  0      0.00%     69.20% # attempts to use FU when none available (Count)
system.cpu1.statFuBusy::SimdAlu                   120      0.17%     69.37% # attempts to use FU when none available (Count)
system.cpu1.statFuBusy::SimdCmp                     0      0.00%     69.37% # attempts to use FU when none available (Count)
system.cpu1.statFuBusy::SimdCvt                   170      0.24%     69.60% # attempts to use FU when none available (Count)
system.cpu1.statFuBusy::SimdMisc                    0      0.00%     69.60% # attempts to use FU when none available (Count)
system.cpu1.statFuBusy::SimdMult                    0      0.00%     69.60% # attempts to use FU when none available (Count)
system.cpu1.statFuBusy::SimdMultAcc                 0      0.00%     69.60% # attempts to use FU when none available (Count)
system.cpu1.statFuBusy::SimdShift                 210      0.29%     69.89% # attempts to use FU when none available (Count)
system.cpu1.statFuBusy::SimdShiftAcc                0      0.00%     69.89% # attempts to use FU when none available (Count)
system.cpu1.statFuBusy::SimdDiv                     0      0.00%     69.89% # attempts to use FU when none available (Count)
system.cpu1.statFuBusy::SimdSqrt                    0      0.00%     69.89% # attempts to use FU when none available (Count)
system.cpu1.statFuBusy::SimdFloatAdd                0      0.00%     69.89% # attempts to use FU when none available (Count)
system.cpu1.statFuBusy::SimdFloatAlu                0      0.00%     69.89% # attempts to use FU when none available (Count)
system.cpu1.statFuBusy::SimdFloatCmp                0      0.00%     69.89% # attempts to use FU when none available (Count)
system.cpu1.statFuBusy::SimdFloatCvt                0      0.00%     69.89% # attempts to use FU when none available (Count)
system.cpu1.statFuBusy::SimdFloatDiv                0      0.00%     69.89% # attempts to use FU when none available (Count)
system.cpu1.statFuBusy::SimdFloatMisc               0      0.00%     69.89% # attempts to use FU when none available (Count)
system.cpu1.statFuBusy::SimdFloatMult               0      0.00%     69.89% # attempts to use FU when none available (Count)
system.cpu1.statFuBusy::SimdFloatMultAcc            0      0.00%     69.89% # attempts to use FU when none available (Count)
system.cpu1.statFuBusy::SimdFloatSqrt               0      0.00%     69.89% # attempts to use FU when none available (Count)
system.cpu1.statFuBusy::SimdReduceAdd               0      0.00%     69.89% # attempts to use FU when none available (Count)
system.cpu1.statFuBusy::SimdReduceAlu               0      0.00%     69.89% # attempts to use FU when none available (Count)
system.cpu1.statFuBusy::SimdReduceCmp               0      0.00%     69.89% # attempts to use FU when none available (Count)
system.cpu1.statFuBusy::SimdFloatReduceAdd            0      0.00%     69.89% # attempts to use FU when none available (Count)
system.cpu1.statFuBusy::SimdFloatReduceCmp            0      0.00%     69.89% # attempts to use FU when none available (Count)
system.cpu1.statFuBusy::SimdAes                     0      0.00%     69.89% # attempts to use FU when none available (Count)
system.cpu1.statFuBusy::SimdAesMix                  0      0.00%     69.89% # attempts to use FU when none available (Count)
system.cpu1.statFuBusy::SimdSha1Hash                0      0.00%     69.89% # attempts to use FU when none available (Count)
system.cpu1.statFuBusy::SimdSha1Hash2               0      0.00%     69.89% # attempts to use FU when none available (Count)
system.cpu1.statFuBusy::SimdSha256Hash              0      0.00%     69.89% # attempts to use FU when none available (Count)
system.cpu1.statFuBusy::SimdSha256Hash2             0      0.00%     69.89% # attempts to use FU when none available (Count)
system.cpu1.statFuBusy::SimdShaSigma2               0      0.00%     69.89% # attempts to use FU when none available (Count)
system.cpu1.statFuBusy::SimdShaSigma3               0      0.00%     69.89% # attempts to use FU when none available (Count)
system.cpu1.statFuBusy::SimdPredAlu                 0      0.00%     69.89% # attempts to use FU when none available (Count)
system.cpu1.statFuBusy::MemRead                 12086     16.74%     86.63% # attempts to use FU when none available (Count)
system.cpu1.statFuBusy::MemWrite                 7793     10.79%     97.42% # attempts to use FU when none available (Count)
system.cpu1.statFuBusy::FloatMemRead             1399      1.94%     99.36% # attempts to use FU when none available (Count)
system.cpu1.statFuBusy::FloatMemWrite             461      0.64%    100.00% # attempts to use FU when none available (Count)
system.cpu1.statFuBusy::IprAccess                   0      0.00%    100.00% # attempts to use FU when none available (Count)
system.cpu1.statFuBusy::InstPrefetch                0      0.00%    100.00% # attempts to use FU when none available (Count)
system.cpu1.statIssuedInstType_0::No_OpClass        44245      0.47%      0.47% # Number of instructions issued per FU type, per thread (Count)
system.cpu1.statIssuedInstType_0::IntAlu      8382358     88.13%     88.60% # Number of instructions issued per FU type, per thread (Count)
system.cpu1.statIssuedInstType_0::IntMult           38      0.00%     88.60% # Number of instructions issued per FU type, per thread (Count)
system.cpu1.statIssuedInstType_0::IntDiv        38635      0.41%     89.00% # Number of instructions issued per FU type, per thread (Count)
system.cpu1.statIssuedInstType_0::FloatAdd         4385      0.05%     89.05% # Number of instructions issued per FU type, per thread (Count)
system.cpu1.statIssuedInstType_0::FloatCmp            0      0.00%     89.05% # Number of instructions issued per FU type, per thread (Count)
system.cpu1.statIssuedInstType_0::FloatCvt         1676      0.02%     89.07% # Number of instructions issued per FU type, per thread (Count)
system.cpu1.statIssuedInstType_0::FloatMult            0      0.00%     89.07% # Number of instructions issued per FU type, per thread (Count)
system.cpu1.statIssuedInstType_0::FloatMultAcc            0      0.00%     89.07% # Number of instructions issued per FU type, per thread (Count)
system.cpu1.statIssuedInstType_0::FloatDiv            0      0.00%     89.07% # Number of instructions issued per FU type, per thread (Count)
system.cpu1.statIssuedInstType_0::FloatMisc            0      0.00%     89.07% # Number of instructions issued per FU type, per thread (Count)
system.cpu1.statIssuedInstType_0::FloatSqrt            0      0.00%     89.07% # Number of instructions issued per FU type, per thread (Count)
system.cpu1.statIssuedInstType_0::SimdAdd         8524      0.09%     89.16% # Number of instructions issued per FU type, per thread (Count)
system.cpu1.statIssuedInstType_0::SimdAddAcc            0      0.00%     89.16% # Number of instructions issued per FU type, per thread (Count)
system.cpu1.statIssuedInstType_0::SimdAlu        17264      0.18%     89.34% # Number of instructions issued per FU type, per thread (Count)
system.cpu1.statIssuedInstType_0::SimdCmp            0      0.00%     89.34% # Number of instructions issued per FU type, per thread (Count)
system.cpu1.statIssuedInstType_0::SimdCvt        18885      0.20%     89.54% # Number of instructions issued per FU type, per thread (Count)
system.cpu1.statIssuedInstType_0::SimdMisc         8988      0.09%     89.63% # Number of instructions issued per FU type, per thread (Count)
system.cpu1.statIssuedInstType_0::SimdMult            0      0.00%     89.63% # Number of instructions issued per FU type, per thread (Count)
system.cpu1.statIssuedInstType_0::SimdMultAcc            0      0.00%     89.63% # Number of instructions issued per FU type, per thread (Count)
system.cpu1.statIssuedInstType_0::SimdShift         3002      0.03%     89.66% # Number of instructions issued per FU type, per thread (Count)
system.cpu1.statIssuedInstType_0::SimdShiftAcc            0      0.00%     89.66% # Number of instructions issued per FU type, per thread (Count)
system.cpu1.statIssuedInstType_0::SimdDiv            0      0.00%     89.66% # Number of instructions issued per FU type, per thread (Count)
system.cpu1.statIssuedInstType_0::SimdSqrt            0      0.00%     89.66% # Number of instructions issued per FU type, per thread (Count)
system.cpu1.statIssuedInstType_0::SimdFloatAdd            0      0.00%     89.66% # Number of instructions issued per FU type, per thread (Count)
system.cpu1.statIssuedInstType_0::SimdFloatAlu            0      0.00%     89.66% # Number of instructions issued per FU type, per thread (Count)
system.cpu1.statIssuedInstType_0::SimdFloatCmp            0      0.00%     89.66% # Number of instructions issued per FU type, per thread (Count)
system.cpu1.statIssuedInstType_0::SimdFloatCvt            0      0.00%     89.66% # Number of instructions issued per FU type, per thread (Count)
system.cpu1.statIssuedInstType_0::SimdFloatDiv            0      0.00%     89.66% # Number of instructions issued per FU type, per thread (Count)
system.cpu1.statIssuedInstType_0::SimdFloatMisc            0      0.00%     89.66% # Number of instructions issued per FU type, per thread (Count)
system.cpu1.statIssuedInstType_0::SimdFloatMult            0      0.00%     89.66% # Number of instructions issued per FU type, per thread (Count)
system.cpu1.statIssuedInstType_0::SimdFloatMultAcc            0      0.00%     89.66% # Number of instructions issued per FU type, per thread (Count)
system.cpu1.statIssuedInstType_0::SimdFloatSqrt            0      0.00%     89.66% # Number of instructions issued per FU type, per thread (Count)
system.cpu1.statIssuedInstType_0::SimdReduceAdd            0      0.00%     89.66% # Number of instructions issued per FU type, per thread (Count)
system.cpu1.statIssuedInstType_0::SimdReduceAlu            0      0.00%     89.66% # Number of instructions issued per FU type, per thread (Count)
system.cpu1.statIssuedInstType_0::SimdReduceCmp            0      0.00%     89.66% # Number of instructions issued per FU type, per thread (Count)
system.cpu1.statIssuedInstType_0::SimdFloatReduceAdd            0      0.00%     89.66% # Number of instructions issued per FU type, per thread (Count)
system.cpu1.statIssuedInstType_0::SimdFloatReduceCmp            0      0.00%     89.66% # Number of instructions issued per FU type, per thread (Count)
system.cpu1.statIssuedInstType_0::SimdAes            0      0.00%     89.66% # Number of instructions issued per FU type, per thread (Count)
system.cpu1.statIssuedInstType_0::SimdAesMix            0      0.00%     89.66% # Number of instructions issued per FU type, per thread (Count)
system.cpu1.statIssuedInstType_0::SimdSha1Hash            0      0.00%     89.66% # Number of instructions issued per FU type, per thread (Count)
system.cpu1.statIssuedInstType_0::SimdSha1Hash2            0      0.00%     89.66% # Number of instructions issued per FU type, per thread (Count)
system.cpu1.statIssuedInstType_0::SimdSha256Hash            0      0.00%     89.66% # Number of instructions issued per FU type, per thread (Count)
system.cpu1.statIssuedInstType_0::SimdSha256Hash2            0      0.00%     89.66% # Number of instructions issued per FU type, per thread (Count)
system.cpu1.statIssuedInstType_0::SimdShaSigma2            0      0.00%     89.66% # Number of instructions issued per FU type, per thread (Count)
system.cpu1.statIssuedInstType_0::SimdShaSigma3            0      0.00%     89.66% # Number of instructions issued per FU type, per thread (Count)
system.cpu1.statIssuedInstType_0::SimdPredAlu            0      0.00%     89.66% # Number of instructions issued per FU type, per thread (Count)
system.cpu1.statIssuedInstType_0::MemRead       689434      7.25%     96.91% # Number of instructions issued per FU type, per thread (Count)
system.cpu1.statIssuedInstType_0::MemWrite       239275      2.52%     99.43% # Number of instructions issued per FU type, per thread (Count)
system.cpu1.statIssuedInstType_0::FloatMemRead        35242      0.37%     99.80% # Number of instructions issued per FU type, per thread (Count)
system.cpu1.statIssuedInstType_0::FloatMemWrite        19176      0.20%    100.00% # Number of instructions issued per FU type, per thread (Count)
system.cpu1.statIssuedInstType_0::IprAccess            0      0.00%    100.00% # Number of instructions issued per FU type, per thread (Count)
system.cpu1.statIssuedInstType_0::InstPrefetch            0      0.00%    100.00% # Number of instructions issued per FU type, per thread (Count)
system.cpu1.statIssuedInstType_0::total       9511127                       # Number of instructions issued per FU type, per thread (Count)
system.cpu1.issueRate                        0.853402                       # Inst issue rate ((Count/Cycle))
system.cpu1.fuBusy                              72202                       # FU busy when requested (Count)
system.cpu1.fuBusyRate                       0.007591                       # FU busy rate (busy events/executed inst) ((Count/Count))
system.cpu1.intInstQueueReads                28947861                       # Number of integer instruction queue reads (Count)
system.cpu1.intInstQueueWrites               11175237                       # Number of integer instruction queue writes (Count)
system.cpu1.intInstQueueWakeupAccesses        9314486                       # Number of integer instruction queue wakeup accesses (Count)
system.cpu1.fpInstQueueReads                   239260                       # Number of floating instruction queue reads (Count)
system.cpu1.fpInstQueueWrites                  182977                       # Number of floating instruction queue writes (Count)
system.cpu1.fpInstQueueWakeupAccesses          114039                       # Number of floating instruction queue wakeup accesses (Count)
system.cpu1.vecInstQueueReads                       0                       # Number of vector instruction queue reads (Count)
system.cpu1.vecInstQueueWrites                      0                       # Number of vector instruction queue writes (Count)
system.cpu1.vecInstQueueWakeupAccesses              0                       # Number of vector instruction queue wakeup accesses (Count)
system.cpu1.intAluAccesses                    9418424                       # Number of integer alu accesses (Count)
system.cpu1.fpAluAccesses                      120660                       # Number of floating point alu accesses (Count)
system.cpu1.vecAluAccesses                          0                       # Number of vector alu accesses (Count)
system.cpu1.numInsts                          9463170                       # Number of executed instructions (Count)
system.cpu1.numLoadInsts                       715497                       # Number of load instructions executed (Count)
system.cpu1.numSquashedInsts                    47957                       # Number of squashed instructions skipped in execute (Count)
system.cpu1.numSwp                                  0                       # Number of swp insts executed (Count)
system.cpu1.numNop                                  0                       # Number of nop insts executed (Count)
system.cpu1.numRefs                            971426                       # Number of memory reference insts executed (Count)
system.cpu1.numBranches                        656762                       # Number of branches executed (Count)
[...]
system.ruby.network.ext_out_link_utilization      4217779                       (Unspecified)
system.ruby.network.flit_network_latency | 80187691000                       |209928262000                       | 19624006000                       (Unspecified)
system.ruby.network.flit_queueing_latency |  2182137500                       |  2256467500                       |   148761500                       (Unspecified)
system.ruby.network.flits_injected       |     1000332     23.72%     23.72% |     2919924     69.23%     92.95% |      297525      7.05%    100.00% (Unspecified)
system.ruby.network.flits_injected::total      4217781                       (Unspecified)
system.ruby.network.flits_received       |     1000331     23.72%     23.72% |     2919924     69.23%     92.95% |      297523      7.05%    100.00% (Unspecified)
system.ruby.network.flits_received::total      4217778                       (Unspecified)
system.ruby.network.int_link_utilization     10457507                       (Unspecified)
system.ruby.network.packet_network_latency | 59650827500                       | 69367491500                       | 19624006000                       (Unspecified)
system.ruby.network.packet_queueing_latency |  1778003500                       |   585571500                       |   148761500                       (Unspecified)
system.ruby.network.packets_injected     |      815524     42.29%     42.29% |      815520     42.29%     84.57% |      297525     15.43%    100.00% (Unspecified)
system.ruby.network.packets_injected::total      1928569                       (Unspecified)
system.ruby.network.packets_received     |      815523     42.29%     42.29% |      815520     42.29%     84.57% |      297523     15.43%    100.00% (Unspecified)
system.ruby.network.packets_received::total      1928566                       (Unspecified)
system.ruby.network.routers00.Var_1                 0                       (Unspecified)
system.ruby.network.routers00.Var_2                 0                       (Unspecified)
system.ruby.network.routers00.Var_3                 0                       (Unspecified)
system.ruby.network.routers00.all_counts            0                       (Unspecified)
system.ruby.network.routers00.buffer_reads       668274                       (Unspecified)
system.ruby.network.routers00.buffer_writes       668274                       (Unspecified)
system.ruby.network.routers00.crossbar_activity       668274                       (Unspecified)
system.ruby.network.routers00.detour_counts            0                       (Unspecified)
system.ruby.network.routers00.regular_var            0                       (Unspecified)
system.ruby.network.routers00.risk_counts            0                       (Unspecified)
system.ruby.network.routers00.sw_input_arbiter_activity       672904                       (Unspecified)
system.ruby.network.routers00.sw_output_arbiter_activity       668274                       (Unspecified)
system.ruby.network.routers01.Var_1                 0                       (Unspecified)
system.ruby.network.routers01.Var_2                 0                       (Unspecified)
system.ruby.network.routers01.Var_3                 0                       (Unspecified)
system.ruby.network.routers01.all_counts            0                       (Unspecified)
system.ruby.network.routers01.buffer_reads       933007                       (Unspecified)
system.ruby.network.routers01.buffer_writes       933007                       (Unspecified)
system.ruby.network.routers01.crossbar_activity       933007                       (Unspecified)
system.ruby.network.routers01.detour_counts            0                       (Unspecified)
system.ruby.network.routers01.regular_var            0                       (Unspecified)
system.ruby.network.routers01.risk_counts            0                       (Unspecified)
system.ruby.network.routers01.sw_input_arbiter_activity       943264                       (Unspecified)
system.ruby.network.routers01.sw_output_arbiter_activity       933007                       (Unspecified)
system.ruby.network.routers02.Var_1                 0                       (Unspecified)
system.ruby.network.routers02.Var_2                 0                       (Unspecified)
system.ruby.network.routers02.Var_3                 0                       (Unspecified)
system.ruby.network.routers02.all_counts            0                       (Unspecified)
system.ruby.network.routers02.buffer_reads       934902                       (Unspecified)
system.ruby.network.routers02.buffer_writes       934902                       (Unspecified)
system.ruby.network.routers02.crossbar_activity       934902                       (Unspecified)
system.ruby.network.routers02.detour_counts            0                       (Unspecified)
system.ruby.network.routers02.regular_var            0                       (Unspecified)
system.ruby.network.routers02.risk_counts            0                       (Unspecified)
system.ruby.network.routers02.sw_input_arbiter_activity       944978                       (Unspecified)
system.ruby.network.routers02.sw_output_arbiter_activity       934902                       (Unspecified)
system.ruby.network.routers03.Var_1                 0                       (Unspecified)
system.ruby.network.routers03.Var_2                 0                       (Unspecified)
system.ruby.network.routers03.Var_3                 0                       (Unspecified)
system.ruby.network.routers03.all_counts            0                       (Unspecified)
system.ruby.network.routers03.buffer_reads       658270                       (Unspecified)
system.ruby.network.routers03.buffer_writes       658270                       (Unspecified)
system.ruby.network.routers03.crossbar_activity       658270                       (Unspecified)
system.ruby.network.routers03.detour_counts            0                       (Unspecified)
system.ruby.network.routers03.regular_var            0                       (Unspecified)
system.ruby.network.routers03.risk_counts            0                       (Unspecified)
system.ruby.network.routers03.sw_input_arbiter_activity       662389                       (Unspecified)
system.ruby.network.routers03.sw_output_arbiter_activity       658270                       (Unspecified)
system.ruby.network.routers04.Var_1                 0                       (Unspecified)
system.ruby.network.routers04.Var_2                 0                       (Unspecified)
system.ruby.network.routers04.Var_3                 0                       (Unspecified)
system.ruby.network.routers04.all_counts            0                       (Unspecified)
system.ruby.network.routers04.buffer_reads       914015                       (Unspecified)
system.ruby.network.routers04.buffer_writes       914015                       (Unspecified)
system.ruby.network.routers04.crossbar_activity       914015                       (Unspecified)
system.ruby.network.routers04.detour_counts            0                       (Unspecified)
system.ruby.network.routers04.regular_var            0                       (Unspecified)
system.ruby.network.routers04.risk_counts            0                       (Unspecified)
system.ruby.network.routers04.sw_input_arbiter_activity       923369                       (Unspecified)
system.ruby.network.routers04.sw_output_arbiter_activity       914015                       (Unspecified)
system.ruby.network.routers05.Var_1                 0                       (Unspecified)
system.ruby.network.routers05.Var_2                 0                       (Unspecified)
system.ruby.network.routers05.Var_3                 0                       (Unspecified)
system.ruby.network.routers05.all_counts            0                       (Unspecified)
system.ruby.network.routers05.buffer_reads      1178558                       (Unspecified)
system.ruby.network.routers05.buffer_writes      1178558                       (Unspecified)
system.ruby.network.routers05.crossbar_activity      1178558                       (Unspecified)
system.ruby.network.routers05.detour_counts            0                       (Unspecified)
system.ruby.network.routers05.regular_var            0                       (Unspecified)
system.ruby.network.routers05.risk_counts            0                       (Unspecified)
system.ruby.network.routers05.sw_input_arbiter_activity      1194209                       (Unspecified)
system.ruby.network.routers05.sw_output_arbiter_activity      1178558                       (Unspecified)
system.ruby.network.routers06.Var_1                 0                       (Unspecified)
system.ruby.network.routers06.Var_2                 0                       (Unspecified)
system.ruby.network.routers06.Var_3                 0                       (Unspecified)
system.ruby.network.routers06.all_counts            0                       (Unspecified)
system.ruby.network.routers06.buffer_reads      1177643                       (Unspecified)
system.ruby.network.routers06.buffer_writes      1177643                       (Unspecified)
system.ruby.network.routers06.crossbar_activity      1177643                       (Unspecified)
system.ruby.network.routers06.detour_counts            0                       (Unspecified)
system.ruby.network.routers06.regular_var            0                       (Unspecified)
system.ruby.network.routers06.risk_counts            0                       (Unspecified)
system.ruby.network.routers06.sw_input_arbiter_activity      1193713                       (Unspecified)
system.ruby.network.routers06.sw_output_arbiter_activity      1177643                       (Unspecified)
system.ruby.network.routers07.Var_1                 0                       (Unspecified)
system.ruby.network.routers07.Var_2                 0                       (Unspecified)
system.ruby.network.routers07.Var_3                 0                       (Unspecified)
system.ruby.network.routers07.all_counts            0                       (Unspecified)
system.ruby.network.routers07.buffer_reads       901195                       (Unspecified)
system.ruby.network.routers07.buffer_writes       901195                       (Unspecified)
system.ruby.network.routers07.crossbar_activity       901195                       (Unspecified)
system.ruby.network.routers07.detour_counts            0                       (Unspecified)
system.ruby.network.routers07.regular_var            0                       (Unspecified)
system.ruby.network.routers07.risk_counts            0                       (Unspecified)
system.ruby.network.routers07.sw_input_arbiter_activity       910653                       (Unspecified)
system.ruby.network.routers07.sw_output_arbiter_activity       901195                       (Unspecified)
system.ruby.network.routers08.Var_1                 0                       (Unspecified)
system.ruby.network.routers08.Var_2                 0                       (Unspecified)
system.ruby.network.routers08.Var_3                 0                       (Unspecified)
system.ruby.network.routers08.all_counts            0                       (Unspecified)
system.ruby.network.routers08.buffer_reads       911392                       (Unspecified)
system.ruby.network.routers08.buffer_writes       911392                       (Unspecified)
system.ruby.network.routers08.crossbar_activity       911392                       (Unspecified)
system.ruby.network.routers08.detour_counts            0                       (Unspecified)
system.ruby.network.routers08.regular_var            0                       (Unspecified)
system.ruby.network.routers08.risk_counts            0                       (Unspecified)
system.ruby.network.routers08.sw_input_arbiter_activity       920631                       (Unspecified)
system.ruby.network.routers08.sw_output_arbiter_activity       911392                       (Unspecified)
system.ruby.network.routers09.Var_1                 0                       (Unspecified)
system.ruby.network.routers09.Var_2                 0                       (Unspecified)
system.ruby.network.routers09.Var_3                 0                       (Unspecified)
system.ruby.network.routers09.all_counts            0                       (Unspecified)
system.ruby.network.routers09.buffer_reads      1180035                       (Unspecified)
system.ruby.network.routers09.buffer_writes      1180035                       (Unspecified)
system.ruby.network.routers09.crossbar_activity      1180035                       (Unspecified)
system.ruby.network.routers09.detour_counts            0                       (Unspecified)
system.ruby.network.routers09.regular_var            0                       (Unspecified)
system.ruby.network.routers09.risk_counts            0                       (Unspecified)
system.ruby.network.routers09.sw_input_arbiter_activity      1195253                       (Unspecified)
system.ruby.network.routers09.sw_output_arbiter_activity      1180035                       (Unspecified)
system.ruby.network.routers10.Var_1                 0                       (Unspecified)
system.ruby.network.routers10.Var_2                 0                       (Unspecified)
system.ruby.network.routers10.Var_3                 0                       (Unspecified)
system.ruby.network.routers10.all_counts            0                       (Unspecified)
system.ruby.network.routers10.buffer_reads      1176669                       (Unspecified)
system.ruby.network.routers10.buffer_writes      1176669                       (Unspecified)
system.ruby.network.routers10.crossbar_activity      1176669                       (Unspecified)
system.ruby.network.routers10.detour_counts            0                       (Unspecified)
system.ruby.network.routers10.regular_var            0                       (Unspecified)
system.ruby.network.routers10.risk_counts            0                       (Unspecified)
system.ruby.network.routers10.sw_input_arbiter_activity      1191450                       (Unspecified)
system.ruby.network.routers10.sw_output_arbiter_activity      1176669                       (Unspecified)
system.ruby.network.routers11.Var_1                 0                       (Unspecified)
system.ruby.network.routers11.Var_2                 0                       (Unspecified)
system.ruby.network.routers11.Var_3                 0                       (Unspecified)
system.ruby.network.routers11.all_counts            0                       (Unspecified)
system.ruby.network.routers11.buffer_reads       897418                       (Unspecified)
system.ruby.network.routers11.buffer_writes       897418                       (Unspecified)
system.ruby.network.routers11.crossbar_activity       897418                       (Unspecified)
system.ruby.network.routers11.detour_counts            0                       (Unspecified)
system.ruby.network.routers11.regular_var            0                       (Unspecified)
system.ruby.network.routers11.risk_counts            0                       (Unspecified)
system.ruby.network.routers11.sw_input_arbiter_activity       906283                       (Unspecified)
system.ruby.network.routers11.sw_output_arbiter_activity       897418                       (Unspecified)
system.ruby.network.routers12.Var_1                 0                       (Unspecified)
system.ruby.network.routers12.Var_2                 0                       (Unspecified)
system.ruby.network.routers12.Var_3                 0                       (Unspecified)
system.ruby.network.routers12.all_counts            0                       (Unspecified)
system.ruby.network.routers12.buffer_reads       655963                       (Unspecified)
system.ruby.network.routers12.buffer_writes       655963                       (Unspecified)
system.ruby.network.routers12.crossbar_activity       655963                       (Unspecified)
system.ruby.network.routers12.detour_counts            0                       (Unspecified)
system.ruby.network.routers12.regular_var            0                       (Unspecified)
system.ruby.network.routers12.risk_counts            0                       (Unspecified)
system.ruby.network.routers12.sw_input_arbiter_activity       660169                       (Unspecified)
system.ruby.network.routers12.sw_output_arbiter_activity       655963                       (Unspecified)
system.ruby.network.routers13.Var_1                 0                       (Unspecified)
system.ruby.network.routers13.Var_2                 0                       (Unspecified)
system.ruby.network.routers13.Var_3                 0                       (Unspecified)
system.ruby.network.routers13.all_counts            0                       (Unspecified)
system.ruby.network.routers13.buffer_reads       922112                       (Unspecified)
system.ruby.network.routers13.buffer_writes       922112                       (Unspecified)
system.ruby.network.routers13.crossbar_activity       922112                       (Unspecified)
system.ruby.network.routers13.detour_counts            0                       (Unspecified)
system.ruby.network.routers13.regular_var            0                       (Unspecified)
system.ruby.network.routers13.risk_counts            0                       (Unspecified)
system.ruby.network.routers13.sw_input_arbiter_activity       932073                       (Unspecified)
system.ruby.network.routers13.sw_output_arbiter_activity       922112                       (Unspecified)
system.ruby.network.routers14.Var_1                 0                       (Unspecified)
system.ruby.network.routers14.Var_2                 0                       (Unspecified)
system.ruby.network.routers14.Var_3                 0                       (Unspecified)
system.ruby.network.routers14.all_counts            0                       (Unspecified)
system.ruby.network.routers14.buffer_reads       916204                       (Unspecified)
system.ruby.network.routers14.buffer_writes       916204                       (Unspecified)
system.ruby.network.routers14.crossbar_activity       916204                       (Unspecified)
system.ruby.network.routers14.detour_counts            0                       (Unspecified)
system.ruby.network.routers14.regular_var            0                       (Unspecified)
system.ruby.network.routers14.risk_counts            0                       (Unspecified)
system.ruby.network.routers14.sw_input_arbiter_activity       925604                       (Unspecified)
system.ruby.network.routers14.sw_output_arbiter_activity       916204                       (Unspecified)
system.ruby.network.routers15.Var_1                 0                       (Unspecified)
system.ruby.network.routers15.Var_2                 0                       (Unspecified)
system.ruby.network.routers15.Var_3                 0                       (Unspecified)
system.ruby.network.routers15.all_counts            0                       (Unspecified)
system.ruby.network.routers15.buffer_reads       649629                       (Unspecified)
system.ruby.network.routers15.buffer_writes       649629                       (Unspecified)
system.ruby.network.routers15.crossbar_activity       649629                       (Unspecified)
system.ruby.network.routers15.detour_counts            0                       (Unspecified)
system.ruby.network.routers15.regular_var            0                       (Unspecified)
system.ruby.network.routers15.risk_counts            0                       (Unspecified)
system.ruby.network.routers15.sw_input_arbiter_activity       653839                       (Unspecified)
system.ruby.network.routers15.sw_output_arbiter_activity       649629                       (Unspecified)

---------- End Simulation Statistics   ----------
