
---------- Begin Simulation Statistics ----------
simSeconds                                   0.006244                       # Number of seconds simulated (Second)
simTicks                                   6244499000                       # Number of ticks simulated (Tick)
finalTick                                  6244499000                       # Number of ticks from beginning of simulation (restored from checkpoints and never reset) (Tick)
simFreq                                  1000000000000                       # The number of ticks per simulated second ((Tick/Second))
hostSeconds                                   1060.64                       # Real time elapsed on the host (Second)
hostTickRate                                  5887475                       # The number of ticks simulated per host second (ticks/s) ((Tick/Second))
hostMemory                                   11459232                       # Number of bytes of host memory used (Byte)
simInsts                                     85729344                       # Number of instructions simulated (Count)
simOps                                      138890208                       # Number of ops (including micro ops) simulated (Count)
hostInstRate                                    80828                       # Simulator instruction rate (inst/s) ((Count/Second))
hostOpRate                                     130949                       # Simulator op (including micro ops) rate (op/s) ((Count/Second))
system.clk_domain.clock                          1000                       # Clock period in ticks (Tick)
system.cpu0.numCycles                        12325466                       # Number of cpu cycles simulated (Cycle)
system.cpu0.numWorkItemsStarted                     0                       # Number of work items this cpu started (Count)
system.cpu0.numWorkItemsCompleted                   0                       # Number of work items this cpu completed (Count)
system.cpu0.instsAdded                       10016055                       # Number of instructions added to the IQ (excludes non-spec) (Count)
system.cpu0.nonSpecInstsAdded                    1092                       # Number of non-speculative instructions added to the IQ (Count)
system.cpu0.instsIssued                       9512123                       # Number of instructions issued (Count)
system.cpu0.squashedInstsIssued                  2908                       # Number of squashed instructions issued (Count)
system.cpu0.squashedInstsExamined             1336509                       # Number of squashed instructions iterated over during squash; mainly for profiling (Count)
system.cpu0.squashedOperandsExamined          2775103                       # Number of squashed operands that are examined and possibly removed from graph (Count)
system.cpu0.squashedNonSpecRemoved                239                       # Number of squashed non-spec instructions that were removed (Count)
system.cpu0.numIssuedDist::samples           11102048                       # Number of insts issued each cycle (Count)
system.cpu0.numIssuedDist::mean              0.856790                       # Number of insts issued each cycle (Count)
system.cpu0.numIssuedDist::stdev             1.635120                       # Number of insts issued each cycle (Count)
system.cpu0.numIssuedDist::underflows               0      0.00%      0.00% # Number of insts issued each cycle (Count)
system.cpu0.numIssuedDist::0                  8143791     73.35%     73.35% # Number of insts issued each cycle (Count)
system.cpu0.numIssuedDist::1                   335179      3.02%     76.37% # Number of insts issued each cycle (Count)
system.cpu0.numIssuedDist::2                   747802      6.74%     83.11% # Number of insts issued each cycle (Count)
system.cpu0.numIssuedDist::3                   810529      7.30%     90.41% # Number of insts issued each cycle (Count)
system.cpu0.numIssuedDist::4                   506029      4.56%     94.97% # Number of insts issued each cycle (Count)
system.cpu0.numIssuedDist::5                   283719      2.56%     97.52% # Number of insts issued each cycle (Count)
system.cpu0.numIssuedDist::6                   158128      1.42%     98.95% # Number of insts issued each cycle (Count)
system.cpu0.numIssuedDist::7                    76694      0.69%     99.64% # Number of insts issued each cycle (Count)
system.cpu0.numIssuedDist::8                    40177      0.36%    100.00% # Number of insts issued each cycle (Count)
system.cpu0.numIssuedDist::overflows                0      0.00%    100.00% # Number of insts issued each cycle (Count)
system.cpu0.numIssuedDist::min_value                0                       # Number of insts issued each cycle (Count)
system.cpu0.numIssuedDist::max_value                8                       # Number of insts issued each cycle (Count)
system.cpu0.numIssuedDist::total             11102048                       # Number of insts issued each cycle (Count)
system.cpu0.statFuBusy::No_OpClass                  0      0.00%      0.00% # attempts to use FU when none available (Count)
system.cpu0.statFuBusy::IntAlu                  49949     69.22%     69.22% # attempts to use FU when none available (Count)
system.cpu0.statFuBusy::IntMult                     0      0.00%     69.22% # attempts to use FU when none available (Count)
system.cpu0.statFuBusy::IntDiv                      0      0.00%     69.22% # attempts to use FU when none available (Count)
system.cpu0.statFuBusy::FloatAdd                    0      0.00%     69.22% # attempts to use FU when none available (Count)
system.cpu0.statFuBusy::FloatCmp                    0      0.00%     69.22% # attempts to use FU when none available (Count)
system.cpu0.statFuBusy::FloatCvt                    2      0.00%     69.22% # attempts to use FU when none available (Count)
system.cpu0.statFuBusy::FloatMult                   0      0.00%     69.22% # attempts to use FU when none available (Count)
system.cpu0.statFuBusy::FloatMultAcc                0      0.00%     69.22% # attempts to use FU when none available (Count)
system.cpu0.statFuBusy::FloatDiv                    0      0.00%     69.22% # attempts to use FU when none available (Count)
system.cpu0.statFuBusy::FloatMisc                   0      0.00%     69.22% # attempts to use FU when none available (Count)
system.cpu0.statFuBusy::FloatSqrt                   0      0.00%     69.22% # attempts to use FU when none available (Count)
system.cpu0.statFuBusy::SimdAdd                     0      0.00%     69.22% # attempts to use FU when none available (Count)
system.cpu0.statFuBusy::SimdAddAcc                  0      0.00%     69.22% # attempts to use FU when none available (Count)
system.cpu0.statFuBusy::SimdAlu                   123      0.17%     69.39% # attempts to use FU when none available (Count)
system.cpu0.statFuBusy::SimdCmp                     0      0.00%     69.39% # attempts to use FU when none available (Count)
system.cpu0.statFuBusy::SimdCvt                   172      0.24%     69.63% # attempts to use FU when none available (Count)
system.cpu0.statFuBusy::SimdMisc                    0      0.00%     69.63% # attempts to use FU when none available (Count)
system.cpu0.statFuBusy::SimdMult                    0      0.00%     69.63% # attempts to use FU when none available (Count)
system.cpu0.statFuBusy::SimdMultAcc                 0      0.00%     69.63% # attempts to use FU when none available (Count)
system.cpu0.statFuBusy::SimdShift                 211      0.29%     69.92% # attempts to use FU when none available (Count)
system.cpu0.statFuBusy::SimdShiftAcc                0      0.00%     69.92% # attempts to use FU when none available (Count)
system.cpu0.statFuBusy::SimdDiv                     0      0.00%     69.92% # attempts to use FU when none available (Count)
system.cpu0.statFuBusy::SimdSqrt                    0      0.00%     69.92% # attempts to use FU when none available (Count)
system.cpu0.statFuBusy::SimdFloatAdd                0      0.00%     69.92% # attempts to use FU when none available (Count)
system.cpu0.statFuBusy::SimdFloatAlu                0      0.00%     69.92% # attempts to use FU when none available (Count)
system.cpu0.statFuBusy::SimdFloatCmp                0      0.00%     69.92% # attempts to use FU when none available (Count)
system.cpu0.statFuBusy::SimdFloatCvt                0      0.00%     69.92% # attempts to use FU when none available (Count)
system.cpu0.statFuBusy::SimdFloatDiv                0      0.00%     69.92% # attempts to use FU when none available (Count)
system.cpu0.statFuBusy::SimdFloatMisc               0      0.00%     69.92% # attempts to use FU when none available (Count)
system.cpu0.statFuBusy::SimdFloatMult               0      0.00%     69.92% # attempts to use FU when none available (Count)
system.cpu0.statFuBusy::SimdFloatMultAcc            0      0.00%     69.92% # attempts to use FU when none available (Count)
system.cpu0.statFuBusy::SimdFloatSqrt               0      0.00%     69.92% # attempts to use FU when none available (Count)
system.cpu0.statFuBusy::SimdReduceAdd               0      0.00%     69.92% # attempts to use FU when none available (Count)
system.cpu0.statFuBusy::SimdReduceAlu               0      0.00%     69.92% # attempts to use FU when none available (Count)
system.cpu0.statFuBusy::SimdReduceCmp               0      0.00%     69.92% # attempts to use FU when none available (Count)
system.cpu0.statFuBusy::SimdFloatReduceAdd            0      0.00%     69.92% # attempts to use FU when none available (Count)
system.cpu0.statFuBusy::SimdFloatReduceCmp            0      0.00%     69.92% # attempts to use FU when none available (Count)
system.cpu0.statFuBusy::SimdAes                     0      0.00%     69.92% # attempts to use FU when none available (Count)
system.cpu0.statFuBusy::SimdAesMix                  0      0.00%     69.92% # attempts to use FU when none available (Count)
system.cpu0.statFuBusy::SimdSha1Hash                0      0.00%     69.92% # attempts to use FU when none available (Count)
system.cpu0.statFuBusy::SimdSha1Hash2               0      0.00%     69.92% # attempts to use FU when none available (Count)
system.cpu0.statFuBusy::SimdSha256Hash              0      0.00%     69.92% # attempts to use FU when none available (Count)
system.cpu0.statFuBusy::SimdSha256Hash2             0      0.00%     69.92% # attempts to use FU when none available (Count)
system.cpu0.statFuBusy::SimdShaSigma2               0      0.00%     69.92% # attempts to use FU when none available (Count)
system.cpu0.statFuBusy::SimdShaSigma3               0      0.00%     69.92% # attempts to use FU when none available (Count)
system.cpu0.statFuBusy::SimdPredAlu                 0      0.00%     69.92% # attempts to use FU when none available (Count)
system.cpu0.statFuBusy::MemRead                 12085     16.75%     86.67% # attempts to use FU when none available (Count)
system.cpu0.statFuBusy::MemWrite                 7762     10.76%     97.42% # attempts to use FU when none available (Count)
system.cpu0.statFuBusy::FloatMemRead             1400      1.94%     99.36% # attempts to use FU when none available (Count)
system.cpu0.statFuBusy::FloatMemWrite             459      0.64%    100.00% # attempts to use FU when none available (Count)
system.cpu0.statFuBusy::IprAccess                   0      0.00%    100.00% # attempts to use FU when none available (Count)
system.cpu0.statFuBusy::InstPrefetch                0      0.00%    100.00% # attempts to use FU when none available (Count)
system.cpu0.statIssuedInstType_0::No_OpClass        44605      0.47%      0.47% # Number of instructions issued per FU type, per thread (Count)
system.cpu0.statIssuedInstType_0::IntAlu      8382734     88.13%     88.60% # Number of instructions issued per FU type, per thread (Count)
system.cpu0.statIssuedInstType_0::IntMult           37      0.00%     88.60% # Number of instructions issued per FU type, per thread (Count)
system.cpu0.statIssuedInstType_0::IntDiv        38633      0.41%     89.00% # Number of instructions issued per FU type, per thread (Count)
system.cpu0.statIssuedInstType_0::FloatAdd         4365      0.05%     89.05% # Number of instructions issued per FU type, per thread (Count)
system.cpu0.statIssuedInstType_0::FloatCmp            0      0.00%     89.05% # Number of instructions issued per FU type, per thread (Count)
system.cpu0.statIssuedInstType_0::FloatCvt         1694      0.02%     89.07% # Number of instructions issued per FU type, per thread (Count)
system.cpu0.statIssuedInstType_0::FloatMult            0      0.00%     89.07% # Number of instructions issued per FU type, per thread (Count)
system.cpu0.statIssuedInstType_0::FloatMultAcc            0      0.00%     89.07% # Number of instructions issued per FU type, per thread (Count)
system.cpu0.statIssuedInstType_0::FloatDiv            0      0.00%     89.07% # Number of instructions issued per FU type, per thread (Count)
system.cpu0.statIssuedInstType_0::FloatMisc            0      0.00%     89.07% # Number of instructions issued per FU type, per thread (Count)
system.cpu0.statIssuedInstType_0::FloatSqrt            0      0.00%     89.07% # Number of instructions issued per FU type, per thread (Count)
system.cpu0.statIssuedInstType_0::SimdAdd         8535      0.09%     89.16% # Number of instructions issued per FU type, per thread (Count)
system.cpu0.statIssuedInstType_0::SimdAddAcc            0      0.00%     89.16% # Number of instructions issued per FU type, per thread (Count)
system.cpu0.statIssuedInstType_0::SimdAlu        17257      0.18%     89.34% # Number of instructions issued per FU type, per thread (Count)
system.cpu0.statIssuedInstType_0::SimdCmp            0      0.00%     89.34% # Number of instructions issued per FU type, per thread (Count)
system.cpu0.statIssuedInstType_0::SimdCvt        18931      0.20%     89.54% # Number of instructions issued per FU type, per thread (Count)
system.cpu0.statIssuedInstType_0::SimdMisc         8997      0.09%     89.63% # Number of instructions issued per FU type, per thread (Count)
system.cpu0.statIssuedInstType_0::SimdMult            0      0.00%     89.63% # Number of instructions issued per FU type, per thread (Count)
system.cpu0.statIssuedInstType_0::SimdMultAcc            0      0.00%     89.63% # Number of instructions issued per FU type, per thread (Count)
system.cpu0.statIssuedInstType_0::SimdShift         2968      0.03%     89.66% # Number of instructions issued per FU type, per thread (Count)
system.cpu0.statIssuedInstType_0::SimdShiftAcc            0      0.00%     89.66% # Number of instructions issued per FU type, per thread (Count)
system.cpu0.statIssuedInstType_0::SimdDiv            0      0.00%     89.66% # Number of instructions issued per FU type, per thread (Count)
system.cpu0.statIssuedInstType_0::SimdSqrt            0      0.00%     89.66% # Number of instructions issued per FU type, per thread (Count)
system.cpu0.statIssuedInstType_0::SimdFloatAdd            0      0.00%     89.66% # Number of instructions issued per FU type, per thread (Count)
system.cpu0.statIssuedInstType_0::SimdFloatAlu            0      0.00%     89.66% # Number of instructions issued per FU type, per thread (Count)
system.cpu0.statIssuedInstType_0::SimdFloatCmp            0      0.00%     89.66% # Number of instructions issued per FU type, per thread (Count)
system.cpu0.statIssuedInstType_0::SimdFloatCvt            0      0.00%     89.66% # Number of instructions issued per FU type, per thread (Count)
system.cpu0.statIssuedInstType_0::SimdFloatDiv            0      0.00%     89.66% # Number of instructions issued per FU type, per thread (Count)
system.cpu0.statIssuedInstType_0::SimdFloatMisc            0      0.00%     89.66% # Number of instructions issued per FU type, per thread (Count)
system.cpu0.statIssuedInstType_0::SimdFloatMult            0      0.00%     89.66% # Number of instructions issued per FU type, per thread (Count)
system.cpu0.statIssuedInstType_0::SimdFloatMultAcc            0      0.00%     89.66% # Number of instructions issued per FU type, per thread (Count)
system.cpu0.statIssuedInstType_0::SimdFloatSqrt            0      0.00%     89.66% # Number of instructions issued per FU type, per thread (Count)
system.cpu0.statIssuedInstType_0::SimdReduceAdd            0      0.00%     89.66% # Number of instructions issued per FU type, per thread (Count)
system.cpu0.statIssuedInstType_0::SimdReduceAlu            0      0.00%     89.66% # Number of instructions issued per FU type, per thread (Count)
system.cpu0.statIssuedInstType_0::SimdReduceCmp            0      0.00%     89.66% # Number of instructions issued per FU type, per thread (Count)
system.cpu0.statIssuedInstType_0::SimdFloatReduceAdd            0      0.00%     89.66% # Number of instructions issued per FU type, per thread (Count)
system.cpu0.statIssuedInstType_0::SimdFloatReduceCmp            0      0.00%     89.66% # Number of instructions issued per FU type, per thread (Count)
system.cpu0.statIssuedInstType_0::SimdAes            0      0.00%     89.66% # Number of instructions issued per FU type, per thread (Count)
system.cpu0.statIssuedInstType_0::SimdAesMix            0      0.00%     89.66% # Number of instructions issued per FU type, per thread (Count)
system.cpu0.statIssuedInstType_0::SimdSha1Hash            0      0.00%     89.66% # Number of instructions issued per FU type, per thread (Count)
system.cpu0.statIssuedInstType_0::SimdSha1Hash2            0      0.00%     89.66% # Number of instructions issued per FU type, per thread (Count)
system.cpu0.statIssuedInstType_0::SimdSha256Hash            0      0.00%     89.66% # Number of instructions issued per FU type, per thread (Count)
system.cpu0.statIssuedInstType_0::SimdSha256Hash2            0      0.00%     89.66% # Number of instructions issued per FU type, per thread (Count)
system.cpu0.statIssuedInstType_0::SimdShaSigma2            0      0.00%     89.66% # Number of instructions issued per FU type, per thread (Count)
system.cpu0.statIssuedInstType_0::SimdShaSigma3            0      0.00%     89.66% # Number of instructions issued per FU type, per thread (Count)
system.cpu0.statIssuedInstType_0::SimdPredAlu            0      0.00%     89.66% # Number of instructions issued per FU type, per thread (Count)
system.cpu0.statIssuedInstType_0::MemRead       689631      7.25%     96.91% # Number of instructions issued per FU type, per thread (Count)
system.cpu0.statIssuedInstType_0::MemWrite       239325      2.52%     99.43% # Number of instructions issued per FU type, per thread (Count)
system.cpu0.statIssuedInstType_0::FloatMemRead        35253      0.37%     99.80% # Number of instructions issued per FU type, per thread (Count)
system.cpu0.statIssuedInstType_0::FloatMemWrite        19158      0.20%    100.00% # Number of instructions issued per FU type, per thread (Count)
system.cpu0.statIssuedInstType_0::IprAccess            0      0.00%    100.00% # Number of instructions issued per FU type, per thread (Count)
system.cpu0.statIssuedInstType_0::InstPrefetch            0      0.00%    100.00% # Number of instructions issued per FU type, per thread (Count)
system.cpu0.statIssuedInstType_0::total       9512123                       # Number of instructions issued per FU type, per thread (Count)
system.cpu0.issueRate                        0.771746                       # Inst issue rate ((Count/Cycle))
system.cpu0.fuBusy                              72163                       # FU busy when requested (Count)
system.cpu0.fuBusyRate                       0.007586                       # FU busy rate (busy events/executed inst) ((Count/Count))
system.cpu0.intInstQueueReads                29962084                       # Number of integer instruction queue reads (Count)
system.cpu0.intInstQueueWrites               11177010                       # Number of integer instruction queue writes (Count)
system.cpu0.intInstQueueWakeupAccesses        9314956                       # Number of integer instruction queue wakeup accesses (Count)
system.cpu0.fpInstQueueReads                   239281                       # Number of floating instruction queue reads (Count)
system.cpu0.fpInstQueueWrites                  182739                       # Number of floating instruction queue writes (Count)
system.cpu0.fpInstQueueWakeupAccesses          114063                       # Number of floating instruction queue wakeup accesses (Count)
system.cpu0.vecInstQueueReads                       0                       # Number of vector instruction queue reads (Count)
system.cpu0.vecInstQueueWrites                      0                       # Number of vector instruction queue writes (Count)
system.cpu0.vecInstQueueWakeupAccesses              0                       # Number of vector instruction queue wakeup accesses (Count)
system.cpu0.intAluAccesses                    9419005                       # Number of integer alu accesses (Count)
system.cpu0.fpAluAccesses                      120676                       # Number of floating point alu accesses (Count)
system.cpu0.vecAluAccesses                          0                       # Number of vector alu accesses (Count)
system.cpu0.numInsts                          9464190                       # Number of executed instructions (Count)
system.cpu0.numLoadInsts                       715701                       # Number of load instructions executed (Count)
system.cpu0.numSquashedInsts                    47933                       # Number of squashed instructions skipped in execute (Count)
system.cpu0.numSwp                                  0                       # Number of swp insts executed (Count)
system.cpu0.numNop                                  0                       # Number of nop insts executed (Count)
system.cpu0.numRefs                            971657                       # Number of memory reference insts executed (Count)
system.cpu0.numBranches                        656828                       # Number of branches executed (Count)
system.cpu0.numStoreInsts                      255956                       # Number of stores executed (Count)
system.cpu0.numRate                          0.767857                       # Inst execution rate ((Count/Cycle))
system.cpu0.timesIdled                           2380                       # Number of times that the entire CPU went into an idle state and unscheduled itself (Count)
system.cpu0.idleCycles                        1223418                       # Total number of cycles that the CPU has spent unscheduled due to idling (Cycle)
system.cpu0.committedInsts                    5358084                       # Number of Instructions Simulated (Count)
system.cpu0.committedOps                      8680638                       # Number of Ops (including micro ops) Simulated (Count)
system.cpu0.cpi                              2.300350                       # CPI: Cycles Per Instruction ((Cycle/Count))
system.cpu0.totalCpi                         2.300350                       # CPI: Total CPI of All Threads ((Cycle/Count))
system.cpu0.ipc                              0.434717                       # IPC: Instructions Per Cycle ((Count/Cycle))
system.cpu0.totalIpc                         0.434717                       # IPC: Total IPC of All Threads ((Count/Cycle))
system.cpu0.intRegfileReads                  15642047                       # Number of integer regfile reads (Count)
system.cpu0.intRegfileWrites                  7655151                       # Number of integer regfile writes (Count)
system.cpu0.fpRegfileReads                     153840                       # Number of floating regfile reads (Count)
system.cpu0.fpRegfileWrites                     85796                       # Number of floating regfile writes (Count)
system.cpu0.ccRegfileReads                    9393245                       # number of cc regfile reads (Count)
system.cpu0.ccRegfileWrites                   4970095                       # number of cc regfile writes (Count)
system.cpu0.miscRegfileReads                  2330372                       # number of misc regfile reads (Count)
system.cpu0.miscRegfileWrites                     846                       # number of misc regfile writes (Count)
system.cpu0.MemDepUnit__0.insertedLoads        787623                       # Number of loads inserted to the mem dependence unit. (Count)
system.cpu0.MemDepUnit__0.insertedStores       302086                       # Number of stores inserted to the mem dependence unit. (Count)
system.cpu0.MemDepUnit__0.conflictingLoads        67401                       # Number of conflicting loads. (Count)
system.cpu0.MemDepUnit__0.conflictingStores        47892                       # Number of conflicting stores. (Count)
system.cpu0.MemDepUnit__1.insertedLoads             0                       # Number of loads inserted to the mem dependence unit. (Count)
system.cpu0.MemDepUnit__1.insertedStores            0                       # Number of stores inserted to the mem dependence unit. (Count)
system.cpu0.MemDepUnit__1.conflictingLoads            0                       # Number of conflicting loads. (Count)
system.cpu0.MemDepUnit__1.conflictingStores            0                       # Number of conflicting stores. (Count)
system.cpu0.MemDepUnit__2.insertedLoads             0                       # Number of loads inserted to the mem dependence unit. (Count)
system.cpu0.MemDepUnit__2.insertedStores            0                       # Number of stores inserted to the mem dependence unit. (Count)
system.cpu0.MemDepUnit__2.conflictingLoads            0                       # Number of conflicting loads. (Count)
system.cpu0.MemDepUnit__2.conflictingStores            0                       # Number of conflicting stores. (Count)
system.cpu0.MemDepUnit__3.insertedLoads             0                       # Number of loads inserted to the mem dependence unit. (Count)
system.cpu0.MemDepUnit__3.insertedStores            0                       # Number of stores inserted to the mem dependence unit. (Count)
system.cpu0.MemDepUnit__3.conflictingLoads            0                       # Number of conflicting loads. (Count)
system.cpu0.MemDepUnit__3.conflictingStores            0                       # Number of conflicting stores. (Count)
system.cpu0.branchPred.lookups                 800589                       # Number of BP lookups (Count)
system.cpu0.branchPred.condPredicted           738196                       # Number of conditional branches predicted (Count)
system.cpu0.branchPred.condIncorrect            19666                       # Number of conditional branches incorrect (Count)
system.cpu0.branchPred.BTBLookups              526641                       # Number of BTB lookups (Count)
system.cpu0.branchPred.BTBUpdates                9392                       # Number of BTB updates (Count)
system.cpu0.branchPred.BTBHits                 522403                       # Number of BTB hits (Count)
system.cpu0.branchPred.BTBHitRatio           0.991953                       # BTB Hit Ratio (Ratio)
system.cpu0.branchPred.RASUsed                  14318                       # Number of times the RAS was used to get a target. (Count)
system.cpu0.branchPred.RASIncorrect                 7                       # Number of incorrect RAS predictions. (Count)
system.cpu0.branchPred.indirectLookups          10094                       # Number of indirect predictor lookups. (Count)
system.cpu0.branchPred.indirectHits              5319                       # Number of indirect target hits. (Count)
system.cpu0.branchPred.indirectMisses            4775                       # Number of indirect misses. (Count)
system.cpu0.branchPred.indirectMispredicted         1253                       # Number of mispredicted indirect branches. (Count)
system.cpu0.commit.commitSquashedInsts        1327386                       # The number of squashed insts skipped by commit (Count)
system.cpu0.commit.commitNonSpecStalls            853                       # The number of times commit has been forced to stall to communicate backwards (Count)
system.cpu0.commit.branchMispredicts            21154                       # The number of times a branch was mispredicted (Count)
system.cpu0.commit.numCommittedDist::samples     10911451                       # Number of insts commited each cycle (Count)
system.cpu0.commit.numCommittedDist::mean     0.795553                       # Number of insts commited each cycle (Count)
system.cpu0.commit.numCommittedDist::stdev     1.904572                       # Number of insts commited each cycle (Count)
system.cpu0.commit.numCommittedDist::underflows            0      0.00%      0.00% # Number of insts commited each cycle (Count)
system.cpu0.commit.numCommittedDist::0        8287628     75.95%     75.95% # Number of insts commited each cycle (Count)
system.cpu0.commit.numCommittedDist::1         945749      8.67%     84.62% # Number of insts commited each cycle (Count)
system.cpu0.commit.numCommittedDist::2         529340      4.85%     89.47% # Number of insts commited each cycle (Count)
system.cpu0.commit.numCommittedDist::3         251863      2.31%     91.78% # Number of insts commited each cycle (Count)
system.cpu0.commit.numCommittedDist::4          50673      0.46%     92.24% # Number of insts commited each cycle (Count)
system.cpu0.commit.numCommittedDist::5         319057      2.92%     95.17% # Number of insts commited each cycle (Count)
system.cpu0.commit.numCommittedDist::6          24617      0.23%     95.39% # Number of insts commited each cycle (Count)
system.cpu0.commit.numCommittedDist::7          45251      0.41%     95.81% # Number of insts commited each cycle (Count)
system.cpu0.commit.numCommittedDist::8         457273      4.19%    100.00% # Number of insts commited each cycle (Count)
system.cpu0.commit.numCommittedDist::overflows            0      0.00%    100.00% # Number of insts commited each cycle (Count)
system.cpu0.commit.numCommittedDist::min_value            0                       # Number of insts commited each cycle (Count)
system.cpu0.commit.numCommittedDist::max_value            8                       # Number of insts commited each cycle (Count)
system.cpu0.commit.numCommittedDist::total     10911451                       # Number of insts commited each cycle (Count)
system.cpu0.commit.instsCommitted             5358084                       # Number of instructions committed (Count)
system.cpu0.commit.opsCommitted               8680638                       # Number of ops (including micro ops) committed (Count)
system.cpu0.commit.memRefs                     815199                       # Number of memory references committed (Count)
system.cpu0.commit.loads                       589160                       # Number of loads committed (Count)
system.cpu0.commit.amos                             0                       # Number of atomic instructions committed (Count)
system.cpu0.commit.membars                          2                       # Number of memory barriers committed (Count)
system.cpu0.commit.branches                    608725                       # Number of branches committed (Count)
system.cpu0.commit.vectorInstructions               0                       # Number of committed Vector instructions. (Count)
system.cpu0.commit.floating                     82703                       # Number of committed floating point instructions. (Count)
system.cpu0.commit.integer                    8591867                       # Number of committed integer instructions. (Count)
system.cpu0.commit.functionCalls                10325                       # Number of function calls committed. (Count)
system.cpu0.commit.committedInstType_0::No_OpClass        36298      0.42%      0.42% # Class of committed instruction (Count)
system.cpu0.commit.committedInstType_0::IntAlu      7747007     89.24%     89.66% # Class of committed instruction (Count)
system.cpu0.commit.committedInstType_0::IntMult           29      0.00%     89.66% # Class of committed instruction (Count)
system.cpu0.commit.committedInstType_0::IntDiv        36267      0.42%     90.08% # Class of committed instruction (Count)
system.cpu0.commit.committedInstType_0::FloatAdd         3202      0.04%     90.12% # Class of committed instruction (Count)
system.cpu0.commit.committedInstType_0::FloatCmp            0      0.00%     90.12% # Class of committed instruction (Count)
system.cpu0.commit.committedInstType_0::FloatCvt         1504      0.02%     90.14% # Class of committed instruction (Count)
system.cpu0.commit.committedInstType_0::FloatMult            0      0.00%     90.14% # Class of committed instruction (Count)
system.cpu0.commit.committedInstType_0::FloatMultAcc            0      0.00%     90.14% # Class of committed instruction (Count)
system.cpu0.commit.committedInstType_0::FloatDiv            0      0.00%     90.14% # Class of committed instruction (Count)
system.cpu0.commit.committedInstType_0::FloatMisc            0      0.00%     90.14% # Class of committed instruction (Count)
system.cpu0.commit.committedInstType_0::FloatSqrt            0      0.00%     90.14% # Class of committed instruction (Count)
system.cpu0.commit.committedInstType_0::SimdAdd         6750      0.08%     90.21% # Class of committed instruction (Count)
system.cpu0.commit.committedInstType_0::SimdAddAcc            0      0.00%     90.21% # Class of committed instruction (Count)
system.cpu0.commit.committedInstType_0::SimdAlu        12220      0.14%     90.35% # Class of committed instruction (Count)
system.cpu0.commit.committedInstType_0::SimdCmp            0      0.00%     90.35% # Class of committed instruction (Count)
system.cpu0.commit.committedInstType_0::SimdCvt        13196      0.15%     90.51% # Class of committed instruction (Count)
system.cpu0.commit.committedInstType_0::SimdMisc         7208      0.08%     90.59% # Class of committed instruction (Count)
system.cpu0.commit.committedInstType_0::SimdMult            0      0.00%     90.59% # Class of committed instruction (Count)
system.cpu0.commit.committedInstType_0::SimdMultAcc            0      0.00%     90.59% # Class of committed instruction (Count)
system.cpu0.commit.committedInstType_0::SimdShift         1758      0.02%     90.61% # Class of committed instruction (Count)
system.cpu0.commit.committedInstType_0::SimdShiftAcc            0      0.00%     90.61% # Class of committed instruction (Count)
system.cpu0.commit.committedInstType_0::SimdDiv            0      0.00%     90.61% # Class of committed instruction (Count)
system.cpu0.commit.committedInstType_0::SimdSqrt            0      0.00%     90.61% # Class of committed instruction (Count)
system.cpu0.commit.committedInstType_0::SimdFloatAdd            0      0.00%     90.61% # Class of committed instruction (Count)
system.cpu0.commit.committedInstType_0::SimdFloatAlu            0      0.00%     90.61% # Class of committed instruction (Count)
system.cpu0.commit.committedInstType_0::SimdFloatCmp            0      0.00%     90.61% # Class of committed instruction (Count)
system.cpu0.commit.committedInstType_0::SimdFloatCvt            0      0.00%     90.61% # Class of committed instruction (Count)
system.cpu0.commit.committedInstType_0::SimdFloatDiv            0      0.00%     90.61% # Class of committed instruction (Count)
system.cpu0.commit.committedInstType_0::SimdFloatMisc            0      0.00%     90.61% # Class of committed instruction (Count)
system.cpu0.commit.committedInstType_0::SimdFloatMult            0      0.00%     90.61% # Class of committed instruction (Count)
system.cpu0.commit.committedInstType_0::SimdFloatMultAcc            0      0.00%     90.61% # Class of committed instruction (Count)
system.cpu0.commit.committedInstType_0::SimdFloatSqrt            0      0.00%     90.61% # Class of committed instruction (Count)
system.cpu0.commit.committedInstType_0::SimdReduceAdd            0      0.00%     90.61% # Class of committed instruction (Count)
system.cpu0.commit.committedInstType_0::SimdReduceAlu            0      0.00%     90.61% # Class of committed instruction (Count)
system.cpu0.commit.committedInstType_0::SimdReduceCmp            0      0.00%     90.61% # Class of committed instruction (Count)
system.cpu0.commit.committedInstType_0::SimdFloatReduceAdd            0      0.00%     90.61% # Class of committed instruction (Count)
system.cpu0.commit.committedInstType_0::SimdFloatReduceCmp            0      0.00%     90.61% # Class of committed instruction (Count)
system.cpu0.commit.committedInstType_0::SimdAes            0      0.00%     90.61% # Class of committed instruction (Count)
system.cpu0.commit.committedInstType_0::SimdAesMix            0      0.00%     90.61% # Class of committed instruction (Count)
system.cpu0.commit.committedInstType_0::SimdSha1Hash            0      0.00%     90.61% # Class of committed instruction (Count)
system.cpu0.commit.committedInstType_0::SimdSha1Hash2            0      0.00%     90.61% # Class of committed instruction (Count)
system.cpu0.commit.committedInstType_0::SimdSha256Hash            0      0.00%     90.61% # Class of committed instruction (Count)
system.cpu0.commit.committedInstType_0::SimdSha256Hash2            0      0.00%     90.61% # Class of committed instruction (Count)
system.cpu0.commit.committedInstType_0::SimdShaSigma2            0      0.00%     90.61% # Class of committed instruction (Count)
system.cpu0.commit.committedInstType_0::SimdShaSigma3            0      0.00%     90.61% # Class of committed instruction (Count)
system.cpu0.commit.committedInstType_0::SimdPredAlu            0      0.00%     90.61% # Class of committed instruction (Count)
system.cpu0.commit.committedInstType_0::MemRead       567561      6.54%     97.15% # Class of committed instruction (Count)
system.cpu0.commit.committedInstType_0::MemWrite       211673      2.44%     99.59% # Class of committed instruction (Count)
system.cpu0.commit.committedInstType_0::FloatMemRead        21599      0.25%     99.83% # Class of committed instruction (Count)
system.cpu0.commit.committedInstType_0::FloatMemWrite        14366      0.17%    100.00% # Class of committed instruction (Count)
system.cpu0.commit.committedInstType_0::IprAccess            0      0.00%    100.00% # Class of committed instruction (Count)
system.cpu0.commit.committedInstType_0::InstPrefetch            0      0.00%    100.00% # Class of committed instruction (Count)
system.cpu0.commit.committedInstType_0::total      8680638                       # Class of committed instruction (Count)
system.cpu0.commit.commitEligibleSamples       457273                       # number cycles where commit BW limit reached (Cycle)
system.cpu0.decode.idleCycles                  696372                       # Number of cycles decode is idle (Cycle)
system.cpu0.decode.blockedCycles              8984957                       # Number of cycles decode is blocked (Cycle)
system.cpu0.decode.runCycles                   722462                       # Number of cycles decode is running (Cycle)
system.cpu0.decode.unblockCycles               670444                       # Number of cycles decode is unblocking (Cycle)
system.cpu0.decode.squashCycles                 27813                       # Number of cycles decode is squashing (Cycle)
system.cpu0.decode.branchResolved              495148                       # Number of times decode resolved a branch (Count)
system.cpu0.decode.branchMispred                 1224                       # Number of times decode detected a branch misprediction (Count)
system.cpu0.decode.decodedInsts              10328835                       # Number of instructions handled by decode (Count)
system.cpu0.decode.squashedInsts                 5770                       # Number of squashed instructions handled by decode (Count)
system.cpu0.fetch.icacheStallCycles            845213                       # Number of cycles fetch is stalled on an Icache miss (Cycle)
system.cpu0.fetch.insts                       6518984                       # Number of instructions fetch has processed (Count)
system.cpu0.fetch.branches                     800589                       # Number of branches that fetch encountered (Count)
system.cpu0.fetch.predictedBranches            542040                       # Number of branches that fetch has predicted taken (Count)
system.cpu0.fetch.cycles                      9980241                       # Number of cycles fetch has run and was not squashing or blocked (Cycle)
system.cpu0.fetch.squashCycles                  58020                       # Number of cycles fetch has spent squashing (Cycle)
system.cpu0.fetch.miscStallCycles               15626                       # Number of cycles fetch has spent waiting on interrupts, or bad addresses, or out of MSHRs (Cycle)
system.cpu0.fetch.pendingTrapStallCycles        17586                       # Number of stall cycles due to pending traps (Cycle)
system.cpu0.fetch.icacheWaitRetryStallCycles       214372                       # Number of stall cycles due to full MSHR (Cycle)
system.cpu0.fetch.cacheLines                   639067                       # Number of cache lines fetched (Count)
system.cpu0.fetch.icacheSquashes                 7024                       # Number of outstanding Icache misses that were squashed (Count)
system.cpu0.fetch.nisnDist::samples          11102048                       # Number of instructions fetched each cycle (Total) (Count)
system.cpu0.fetch.nisnDist::mean             0.972487                       # Number of instructions fetched each cycle (Total) (Count)
system.cpu0.fetch.nisnDist::stdev            2.381043                       # Number of instructions fetched each cycle (Total) (Count)
system.cpu0.fetch.nisnDist::underflows              0      0.00%      0.00% # Number of instructions fetched each cycle (Total) (Count)
system.cpu0.fetch.nisnDist::0                 9233878     83.17%     83.17% # Number of instructions fetched each cycle (Total) (Count)
system.cpu0.fetch.nisnDist::1                  100369      0.90%     84.08% # Number of instructions fetched each cycle (Total) (Count)
system.cpu0.fetch.nisnDist::2                  163447      1.47%     85.55% # Number of instructions fetched each cycle (Total) (Count)
system.cpu0.fetch.nisnDist::3                  163361      1.47%     87.02% # Number of instructions fetched each cycle (Total) (Count)
system.cpu0.fetch.nisnDist::4                  223639      2.01%     89.03% # Number of instructions fetched each cycle (Total) (Count)
system.cpu0.fetch.nisnDist::5                  138642      1.25%     90.28% # Number of instructions fetched each cycle (Total) (Count)
system.cpu0.fetch.nisnDist::6                  104012      0.94%     91.22% # Number of instructions fetched each cycle (Total) (Count)
system.cpu0.fetch.nisnDist::7                  130188      1.17%     92.39% # Number of instructions fetched each cycle (Total) (Count)
system.cpu0.fetch.nisnDist::8                  844512      7.61%    100.00% # Number of instructions fetched each cycle (Total) (Count)
system.cpu0.fetch.nisnDist::overflows               0      0.00%    100.00% # Number of instructions fetched each cycle (Total) (Count)
system.cpu0.fetch.nisnDist::min_value               0                       # Number of instructions fetched each cycle (Total) (Count)
system.cpu0.fetch.nisnDist::max_value               8                       # Number of instructions fetched each cycle (Total) (Count)
system.cpu0.fetch.nisnDist::total            11102048                       # Number of instructions fetched each cycle (Total) (Count)
system.cpu0.fetch.branchRate                 0.064954                       # Number of branch fetches per cycle (Ratio)
system.cpu0.fetch.rate                       0.528904                       # Number of inst fetches per cycle ((Count/Cycle))
system.cpu0.iew.idleCycles                          0                       # Number of cycles IEW is idle (Cycle)
system.cpu0.iew.squashCycles                    27813                       # Number of cycles IEW is squashing (Cycle)
system.cpu0.iew.blockCycles                   5388772                       # Number of cycles IEW is blocking (Cycle)
system.cpu0.iew.unblockCycles                  167427                       # Number of cycles IEW is unblocking (Cycle)
system.cpu0.iew.dispatchedInsts              10017147                       # Number of instructions dispatched to IQ (Count)
system.cpu0.iew.dispSquashedInsts                6193                       # Number of squashed instructions skipped by dispatch (Count)
system.cpu0.iew.dispLoadInsts                  787623                       # Number of dispatched load instructions (Count)
system.cpu0.iew.dispStoreInsts                 302086                       # Number of dispatched store instructions (Count)
system.cpu0.iew.dispNonSpecInsts                  898                       # Number of dispatched non-speculative instructions (Count)
system.cpu0.iew.iqFullEvents                     7377                       # Number of times the IQ has become full, causing a stall (Count)
system.cpu0.iew.lsqFullEvents                  154900                       # Number of times the LSQ has become full, causing a stall (Count)
system.cpu0.iew.memOrderViolationEvents          6103                       # Number of memory order violations (Count)
system.cpu0.iew.predictedTakenIncorrect          9664                       # Number of branches that were predicted taken incorrectly (Count)
system.cpu0.iew.predictedNotTakenIncorrect        13744                       # Number of branches that were predicted not taken incorrectly (Count)
system.cpu0.iew.branchMispredicts               23408                       # Number of branch mispredicts detected at execute (Count)
system.cpu0.iew.instsToCommit                 9442831                       # Cumulative count of insts sent to commit (Count)
system.cpu0.iew.writebackCount                9429019                       # Cumulative count of insts written-back (Count)
system.cpu0.iew.producerInst                  8028020                       # Number of instructions producing a value (Count)
system.cpu0.iew.consumerInst                 18603733                       # Number of instructions consuming a value (Count)
system.cpu0.iew.wbRate                       0.765003                       # Insts written-back per cycle ((Count/Cycle))
system.cpu0.iew.wbFanout                     0.431527                       # Average fanout of values written-back ((Count/Count))
system.cpu0.interrupts.clk_domain.clock          8000                       # Clock period in ticks (Tick)
system.cpu0.lsq0.forwLoads                      59537                       # Number of loads that had data forwarded from stores (Count)
system.cpu0.lsq0.squashedLoads                 198463                       # Number of loads squashed (Count)
system.cpu0.lsq0.ignoredResponses                  99                       # Number of memory responses ignored because the instruction is squashed (Count)
system.cpu0.lsq0.memOrderViolation               6103                       # Number of memory ordering violations (Count)
system.cpu0.lsq0.squashedStores                 76047                       # Number of stores squashed (Count)
system.cpu0.lsq0.rescheduledLoads                 399                       # Number of loads that were rescheduled (Count)
system.cpu0.lsq0.blockedByCache                  2127                       # Number of times an access to memory failed due to the cache being blocked (Count)
system.cpu0.lsq0.loadToUse::samples            589082                       # Distribution of cycle latency between the first time a load is issued and its completion (Unspecified)
system.cpu0.lsq0.loadToUse::mean            58.910376                       # Distribution of cycle latency between the first time a load is issued and its completion (Unspecified)
system.cpu0.lsq0.loadToUse::stdev          210.420839                       # Distribution of cycle latency between the first time a load is issued and its completion (Unspecified)
system.cpu0.lsq0.loadToUse::0-9                543622     92.28%     92.28% # Distribution of cycle latency between the first time a load is issued and its completion (Unspecified)
system.cpu0.lsq0.loadToUse::10-19                  64      0.01%     92.29% # Distribution of cycle latency between the first time a load is issued and its completion (Unspecified)
system.cpu0.lsq0.loadToUse::20-29                  77      0.01%     92.31% # Distribution of cycle latency between the first time a load is issued and its completion (Unspecified)
system.cpu0.lsq0.loadToUse::30-39                  76      0.01%     92.32% # Distribution of cycle latency between the first time a load is issued and its completion (Unspecified)
system.cpu0.lsq0.loadToUse::40-49                  81      0.01%     92.33% # Distribution of cycle latency between the first time a load is issued and its completion (Unspecified)
system.cpu0.lsq0.loadToUse::50-59                  93      0.02%     92.35% # Distribution of cycle latency between the first time a load is issued and its completion (Unspecified)
system.cpu0.lsq0.loadToUse::60-69                  55      0.01%     92.36% # Distribution of cycle latency between the first time a load is issued and its completion (Unspecified)
system.cpu0.lsq0.loadToUse::70-79                  80      0.01%     92.37% # Distribution of cycle latency between the first time a load is issued and its completion (Unspecified)
system.cpu0.lsq0.loadToUse::80-89                  69      0.01%     92.38% # Distribution of cycle latency between the first time a load is issued and its completion (Unspecified)
system.cpu0.lsq0.loadToUse::90-99                  63      0.01%     92.39% # Distribution of cycle latency between the first time a load is issued and its completion (Unspecified)
system.cpu0.lsq0.loadToUse::100-109                75      0.01%     92.41% # Distribution of cycle latency between the first time a load is issued and its completion (Unspecified)
system.cpu0.lsq0.loadToUse::110-119                67      0.01%     92.42% # Distribution of cycle latency between the first time a load is issued and its completion (Unspecified)
system.cpu0.lsq0.loadToUse::120-129                70      0.01%     92.43% # Distribution of cycle latency between the first time a load is issued and its completion (Unspecified)
system.cpu0.lsq0.loadToUse::130-139                36      0.01%     92.44% # Distribution of cycle latency between the first time a load is issued and its completion (Unspecified)
system.cpu0.lsq0.loadToUse::140-149                60      0.01%     92.45% # Distribution of cycle latency between the first time a load is issued and its completion (Unspecified)
system.cpu0.lsq0.loadToUse::150-159                66      0.01%     92.46% # Distribution of cycle latency between the first time a load is issued and its completion (Unspecified)
system.cpu0.lsq0.loadToUse::160-169                54      0.01%     92.47% # Distribution of cycle latency between the first time a load is issued and its completion (Unspecified)
system.cpu0.lsq0.loadToUse::170-179               149      0.03%     92.49% # Distribution of cycle latency between the first time a load is issued and its completion (Unspecified)
system.cpu0.lsq0.loadToUse::180-189               603      0.10%     92.59% # Distribution of cycle latency between the first time a load is issued and its completion (Unspecified)
system.cpu0.lsq0.loadToUse::190-199                44      0.01%     92.60% # Distribution of cycle latency between the first time a load is issued and its completion (Unspecified)
system.cpu0.lsq0.loadToUse::200-209                42      0.01%     92.61% # Distribution of cycle latency between the first time a load is issued and its completion (Unspecified)
system.cpu0.lsq0.loadToUse::210-219                36      0.01%     92.62% # Distribution of cycle latency between the first time a load is issued and its completion (Unspecified)
system.cpu0.lsq0.loadToUse::220-229                74      0.01%     92.63% # Distribution of cycle latency between the first time a load is issued and its completion (Unspecified)
system.cpu0.lsq0.loadToUse::230-239               134      0.02%     92.65% # Distribution of cycle latency between the first time a load is issued and its completion (Unspecified)
system.cpu0.lsq0.loadToUse::240-249               564      0.10%     92.75% # Distribution of cycle latency between the first time a load is issued and its completion (Unspecified)
system.cpu0.lsq0.loadToUse::250-259                43      0.01%     92.75% # Distribution of cycle latency between the first time a load is issued and its completion (Unspecified)
system.cpu0.lsq0.loadToUse::260-269                41      0.01%     92.76% # Distribution of cycle latency between the first time a load is issued and its completion (Unspecified)
system.cpu0.lsq0.loadToUse::270-279                59      0.01%     92.77% # Distribution of cycle latency between the first time a load is issued and its completion (Unspecified)
system.cpu0.lsq0.loadToUse::280-289                92      0.02%     92.79% # Distribution of cycle latency between the first time a load is issued and its completion (Unspecified)
system.cpu0.lsq0.loadToUse::290-299               128      0.02%     92.81% # Distribution of cycle latency between the first time a load is issued and its completion (Unspecified)
system.cpu0.lsq0.loadToUse::overflows           42365      7.19%    100.00% # Distribution of cycle latency between the first time a load is issued and its completion (Unspecified)
system.cpu0.lsq0.loadToUse::min_value               2                       # Distribution of cycle latency between the first time a load is issued and its completion (Unspecified)
system.cpu0.lsq0.loadToUse::max_value            2498                       # Distribution of cycle latency between the first time a load is issued and its completion (Unspecified)
system.cpu0.lsq0.loadToUse::total              589082                       # Distribution of cycle latency between the first time a load is issued and its completion (Unspecified)
system.cpu0.mmu.dtb.rdAccesses                 710061                       # TLB accesses on read requests (Count)
system.cpu0.mmu.dtb.wrAccesses                 255966                       # TLB accesses on write requests (Count)
system.cpu0.mmu.dtb.rdMisses                     3207                       # TLB misses on read requests (Count)
system.cpu0.mmu.dtb.wrMisses                      431                       # TLB misses on write requests (Count)
system.cpu0.mmu.dtb.walker.power_state.pwrStateResidencyTicks::UNDEFINED   6244499000                       # Cumulative time (in ticks) in various power states (Tick)
system.cpu0.mmu.itb.rdAccesses                      0                       # TLB accesses on read requests (Count)
system.cpu0.mmu.itb.wrAccesses                 641836                       # TLB accesses on write requests (Count)
system.cpu0.mmu.itb.rdMisses                        0                       # TLB misses on read requests (Count)
system.cpu0.mmu.itb.wrMisses                     3353                       # TLB misses on write requests (Count)
system.cpu0.mmu.itb.walker.power_state.pwrStateResidencyTicks::UNDEFINED   6244499000                       # Cumulative time (in ticks) in various power states (Tick)
system.cpu0.power_state.pwrStateResidencyTicks::ON   6244499000                       # Cumulative time (in ticks) in various power states (Tick)
system.cpu0.rename.squashCycles                 27813                       # Number of cycles rename is squashing (Cycle)
system.cpu0.rename.idleCycles                  940978                       # Number of cycles rename is idle (Cycle)
system.cpu0.rename.blockCycles                7144733                       # Number of cycles rename is blocking (Cycle)
system.cpu0.rename.serializeStallCycles         22809                       # count of cycles rename stalled for serializing inst (Cycle)
system.cpu0.rename.runCycles                  1131626                       # Number of cycles rename is running (Cycle)
system.cpu0.rename.unblockCycles              1834089                       # Number of cycles rename is unblocking (Cycle)
system.cpu0.rename.renamedInsts              10186835                       # Number of instructions processed by rename (Count)
system.cpu0.rename.ROBFullEvents               111265                       # Number of times rename has blocked due to ROB full (Count)
system.cpu0.rename.IQFullEvents                915211                       # Number of times rename has blocked due to IQ full (Count)
system.cpu0.rename.LQFullEvents                157724                       # Number of times rename has blocked due to LQ full (Count)
system.cpu0.rename.SQFullEvents                548055                       # Number of times rename has blocked due to SQ full (Count)
system.cpu0.rename.fullRegistersEvents           3256                       # Number of times there has been no free registers (Count)
system.cpu0.rename.renamedOperands           22649737                       # Number of destination operands rename has renamed (Count)
system.cpu0.rename.lookups                   43182960                       # Number of register rename lookups that rename has made (Count)
system.cpu0.rename.intLookups                16945096                       # Number of integer rename lookups (Count)
system.cpu0.rename.fpLookups                   192440                       # Number of floating rename lookups (Count)
system.cpu0.rename.committedMaps             19750746                       # Number of HB maps that are committed (Count)
system.cpu0.rename.undoneMaps                 2898991                       # Number of HB maps that are undone due to squashing (Count)
system.cpu0.rename.serializing                    874                       # count of serializing insts renamed (Count)
system.cpu0.rename.tempSerializing                859                       # count of temporary serializing insts renamed (Count)
system.cpu0.rename.skidInsts                  3094154                       # count of insts added to the skid buffer (Count)
system.cpu0.rob.reads                        20454493                       # The number of ROB reads (Count)
system.cpu0.rob.writes                       20206878                       # The number of ROB writes (Count)
system.cpu0.thread_0.numInsts                 5358084                       # Number of Instructions committed (Count)
system.cpu0.thread_0.numOps                   8680638                       # Number of Ops committed (Count)
system.cpu0.thread_0.numMemRefs                     0                       # Number of Memory References (Count)
system.cpu0.workload.numSyscalls                   63                       # Number of system calls (Count)
system.cpu1.numCycles                        12005308                       # Number of cpu cycles simulated (Cycle)
system.cpu1.numWorkItemsStarted                     0                       # Number of work items this cpu started (Count)
system.cpu1.numWorkItemsCompleted                   0                       # Number of work items this cpu completed (Count)
system.cpu1.instsAdded                       10015979                       # Number of instructions added to the IQ (excludes non-spec) (Count)
system.cpu1.nonSpecInstsAdded                    1090                       # Number of non-speculative instructions added to the IQ (Count)
system.cpu1.instsIssued                       9511947                       # Number of instructions issued (Count)
system.cpu1.squashedInstsIssued                  2845                       # Number of squashed instructions issued (Count)
system.cpu1.squashedInstsExamined             1336431                       # Number of squashed instructions iterated over during squash; mainly for profiling (Count)
system.cpu1.squashedOperandsExamined          2775335                       # Number of squashed operands that are examined and possibly removed from graph (Count)
system.cpu1.squashedNonSpecRemoved                237                       # Number of squashed non-spec instructions that were removed (Count)
system.cpu1.numIssuedDist::samples           10846335                       # Number of insts issued each cycle (Count)
system.cpu1.numIssuedDist::mean              0.876973                       # Number of insts issued each cycle (Count)
system.cpu1.numIssuedDist::stdev             1.648984                       # Number of insts issued each cycle (Count)
system.cpu1.numIssuedDist::underflows               0      0.00%      0.00% # Number of insts issued each cycle (Count)
system.cpu1.numIssuedDist::0                  7888261     72.73%     72.73% # Number of insts issued each cycle (Count)
system.cpu1.numIssuedDist::1                   335143      3.09%     75.82% # Number of insts issued each cycle (Count)
system.cpu1.numIssuedDist::2                   747832      6.89%     82.71% # Number of insts issued each cycle (Count)
system.cpu1.numIssuedDist::3                   810275      7.47%     90.18% # Number of insts issued each cycle (Count)
system.cpu1.numIssuedDist::4                   506008      4.67%     94.85% # Number of insts issued each cycle (Count)
system.cpu1.numIssuedDist::5                   283758      2.62%     97.46% # Number of insts issued each cycle (Count)
system.cpu1.numIssuedDist::6                   158170      1.46%     98.92% # Number of insts issued each cycle (Count)
system.cpu1.numIssuedDist::7                    76631      0.71%     99.63% # Number of insts issued each cycle (Count)
system.cpu1.numIssuedDist::8                    40257      0.37%    100.00% # Number of insts issued each cycle (Count)
system.cpu1.numIssuedDist::overflows                0      0.00%    100.00% # Number of insts issued each cycle (Count)
system.cpu1.numIssuedDist::min_value                0                       # Number of insts issued each cycle (Count)
system.cpu1.numIssuedDist::max_value                8                       # Number of insts issued each cycle (Count)
system.cpu1.numIssuedDist::total             10846335                       # Number of insts issued each cycle (Count)
system.cpu1.statFuBusy::No_OpClass                  0      0.00%      0.00% # attempts to use FU when none available (Count)
system.cpu1.statFuBusy::IntAlu                  49942     69.21%     69.21% # attempts to use FU when none available (Count)
system.cpu1.statFuBusy::IntMult                     0      0.00%     69.21% # attempts to use FU when none available (Count)
system.cpu1.statFuBusy::IntDiv                      0      0.00%     69.21% # attempts to use FU when none available (Count)
system.cpu1.statFuBusy::FloatAdd                    0      0.00%     69.21% # attempts to use FU when none available (Count)
system.cpu1.statFuBusy::FloatCmp                    0      0.00%     69.21% # attempts to use FU when none available (Count)
system.cpu1.statFuBusy::FloatCvt                    0      0.00%     69.21% # attempts to use FU when none available (Count)
system.cpu1.statFuBusy::FloatMult                   0      0.00%     69.21% # attempts to use FU when none available (Count)
system.cpu1.statFuBusy::FloatMultAcc                0      0.00%     69.21% # attempts to use FU when none available (Count)
system.cpu1.statFuBusy::FloatDiv                    0      0.00%     69.21% # attempts to use FU when none available (Count)
system.cpu1.statFuBusy::FloatMisc                   0      0.00%     69.21% # attempts to use FU when none available (Count)
system.cpu1.statFuBusy::FloatSqrt                   0      0.00%     69.21% # attempts to use FU when none available (Count)
system.cpu1.statFuBusy::SimdAdd                     0      0.00%     69.21% # attempts to use FU when none available (Count)
system.cpu1.statFuBusy::SimdAddAcc                  0      0.00%     69.21% # attempts to use FU when none available (Count)
system.cpu1.statFuBusy::SimdAlu                   120      0.17%     69.38% # attempts to use FU when none available (Count)
system.cpu1.statFuBusy::SimdCmp                     0      0.00%     69.38% # attempts to use FU when none available (Count)
system.cpu1.statFuBusy::SimdCvt                   173      0.24%     69.62% # attempts to use FU when none available (Count)
system.cpu1.statFuBusy::SimdMisc                    0      0.00%     69.62% # attempts to use FU when none available (Count)
system.cpu1.statFuBusy::SimdMult                    0      0.00%     69.62% # attempts to use FU when none available (Count)
system.cpu1.statFuBusy::SimdMultAcc                 0      0.00%     69.62% # attempts to use FU when none available (Count)
system.cpu1.statFuBusy::SimdShift                 211      0.29%     69.91% # attempts to use FU when none available (Count)
system.cpu1.statFuBusy::SimdShiftAcc                0      0.00%     69.91% # attempts to use FU when none available (Count)
system.cpu1.statFuBusy::SimdDiv                     0      0.00%     69.91% # attempts to use FU when none available (Count)
system.cpu1.statFuBusy::SimdSqrt                    0      0.00%     69.91% # attempts to use FU when none available (Count)
system.cpu1.statFuBusy::SimdFloatAdd                0      0.00%     69.91% # attempts to use FU when none available (Count)
system.cpu1.statFuBusy::SimdFloatAlu                0      0.00%     69.91% # attempts to use FU when none available (Count)
system.cpu1.statFuBusy::SimdFloatCmp                0      0.00%     69.91% # attempts to use FU when none available (Count)
system.cpu1.statFuBusy::SimdFloatCvt                0      0.00%     69.91% # attempts to use FU when none available (Count)
system.cpu1.statFuBusy::SimdFloatDiv                0      0.00%     69.91% # attempts to use FU when none available (Count)
system.cpu1.statFuBusy::SimdFloatMisc               0      0.00%     69.91% # attempts to use FU when none available (Count)
system.cpu1.statFuBusy::SimdFloatMult               0      0.00%     69.91% # attempts to use FU when none available (Count)
system.cpu1.statFuBusy::SimdFloatMultAcc            0      0.00%     69.91% # attempts to use FU when none available (Count)
system.cpu1.statFuBusy::SimdFloatSqrt               0      0.00%     69.91% # attempts to use FU when none available (Count)
system.cpu1.statFuBusy::SimdReduceAdd               0      0.00%     69.91% # attempts to use FU when none available (Count)
system.cpu1.statFuBusy::SimdReduceAlu               0      0.00%     69.91% # attempts to use FU when none available (Count)
system.cpu1.statFuBusy::SimdReduceCmp               0      0.00%     69.91% # attempts to use FU when none available (Count)
system.cpu1.statFuBusy::SimdFloatReduceAdd            0      0.00%     69.91% # attempts to use FU when none available (Count)
system.cpu1.statFuBusy::SimdFloatReduceCmp            0      0.00%     69.91% # attempts to use FU when none available (Count)
system.cpu1.statFuBusy::SimdAes                     0      0.00%     69.91% # attempts to use FU when none available (Count)
system.cpu1.statFuBusy::SimdAesMix                  0      0.00%     69.91% # attempts to use FU when none available (Count)
system.cpu1.statFuBusy::SimdSha1Hash                0      0.00%     69.91% # attempts to use FU when none available (Count)
system.cpu1.statFuBusy::SimdSha1Hash2               0      0.00%     69.91% # attempts to use FU when none available (Count)
system.cpu1.statFuBusy::SimdSha256Hash              0      0.00%     69.91% # attempts to use FU when none available (Count)
system.cpu1.statFuBusy::SimdSha256Hash2             0      0.00%     69.91% # attempts to use FU when none available (Count)
system.cpu1.statFuBusy::SimdShaSigma2               0      0.00%     69.91% # attempts to use FU when none available (Count)
system.cpu1.statFuBusy::SimdShaSigma3               0      0.00%     69.91% # attempts to use FU when none available (Count)
system.cpu1.statFuBusy::SimdPredAlu                 0      0.00%     69.91% # attempts to use FU when none available (Count)
system.cpu1.statFuBusy::MemRead                 12088     16.75%     86.66% # attempts to use FU when none available (Count)
system.cpu1.statFuBusy::MemWrite                 7785     10.79%     97.45% # attempts to use FU when none available (Count)
system.cpu1.statFuBusy::FloatMemRead             1390      1.93%     99.37% # attempts to use FU when none available (Count)
system.cpu1.statFuBusy::FloatMemWrite             452      0.63%    100.00% # attempts to use FU when none available (Count)
system.cpu1.statFuBusy::IprAccess                   0      0.00%    100.00% # attempts to use FU when none available (Count)
system.cpu1.statFuBusy::InstPrefetch                0      0.00%    100.00% # attempts to use FU when none available (Count)
system.cpu1.statIssuedInstType_0::No_OpClass        44636      0.47%      0.47% # Number of instructions issued per FU type, per thread (Count)
system.cpu1.statIssuedInstType_0::IntAlu      8382687     88.13%     88.60% # Number of instructions issued per FU type, per thread (Count)
system.cpu1.statIssuedInstType_0::IntMult           37      0.00%     88.60% # Number of instructions issued per FU type, per thread (Count)
system.cpu1.statIssuedInstType_0::IntDiv        38635      0.41%     89.00% # Number of instructions issued per FU type, per thread (Count)
system.cpu1.statIssuedInstType_0::FloatAdd         4366      0.05%     89.05% # Number of instructions issued per FU type, per thread (Count)
system.cpu1.statIssuedInstType_0::FloatCmp            0      0.00%     89.05% # Number of instructions issued per FU type, per thread (Count)
system.cpu1.statIssuedInstType_0::FloatCvt         1686      0.02%     89.07% # Number of instructions issued per FU type, per thread (Count)
system.cpu1.statIssuedInstType_0::FloatMult            0      0.00%     89.07% # Number of instructions issued per FU type, per thread (Count)
system.cpu1.statIssuedInstType_0::FloatMultAcc            0      0.00%     89.07% # Number of instructions issued per FU type, per thread (Count)
system.cpu1.statIssuedInstType_0::FloatDiv            0      0.00%     89.07% # Number of instructions issued per FU type, per thread (Count)
system.cpu1.statIssuedInstType_0::FloatMisc            0      0.00%     89.07% # Number of instructions issued per FU type, per thread (Count)
system.cpu1.statIssuedInstType_0::FloatSqrt            0      0.00%     89.07% # Number of instructions issued per FU type, per thread (Count)
system.cpu1.statIssuedInstType_0::SimdAdd         8532      0.09%     89.16% # Number of instructions issued per FU type, per thread (Count)
system.cpu1.statIssuedInstType_0::SimdAddAcc            0      0.00%     89.16% # Number of instructions issued per FU type, per thread (Count)
system.cpu1.statIssuedInstType_0::SimdAlu        17262      0.18%     89.34% # Number of instructions issued per FU type, per thread (Count)
system.cpu1.statIssuedInstType_0::SimdCmp            0      0.00%     89.34% # Number of instructions issued per FU type, per thread (Count)
system.cpu1.statIssuedInstType_0::SimdCvt        18943      0.20%     89.54% # Number of instructions issued per FU type, per thread (Count)
system.cpu1.statIssuedInstType_0::SimdMisc         8989      0.09%     89.63% # Number of instructions issued per FU type, per thread (Count)
system.cpu1.statIssuedInstType_0::SimdMult            0      0.00%     89.63% # Number of instructions issued per FU type, per thread (Count)
system.cpu1.statIssuedInstType_0::SimdMultAcc            0      0.00%     89.63% # Number of instructions issued per FU type, per thread (Count)
system.cpu1.statIssuedInstType_0::SimdShift         2980      0.03%     89.66% # Number of instructions issued per FU type, per thread (Count)
system.cpu1.statIssuedInstType_0::SimdShiftAcc            0      0.00%     89.66% # Number of instructions issued per FU type, per thread (Count)
system.cpu1.statIssuedInstType_0::SimdDiv            0      0.00%     89.66% # Number of instructions issued per FU type, per thread (Count)
system.cpu1.statIssuedInstType_0::SimdSqrt            0      0.00%     89.66% # Number of instructions issued per FU type, per thread (Count)
system.cpu1.statIssuedInstType_0::SimdFloatAdd            0      0.00%     89.66% # Number of instructions issued per FU type, per thread (Count)
system.cpu1.statIssuedInstType_0::SimdFloatAlu            0      0.00%     89.66% # Number of instructions issued per FU type, per thread (Count)
system.cpu1.statIssuedInstType_0::SimdFloatCmp            0      0.00%     89.66% # Number of instructions issued per FU type, per thread (Count)
system.cpu1.statIssuedInstType_0::SimdFloatCvt            0      0.00%     89.66% # Number of instructions issued per FU type, per thread (Count)
system.cpu1.statIssuedInstType_0::SimdFloatDiv            0      0.00%     89.66% # Number of instructions issued per FU type, per thread (Count)
system.cpu1.statIssuedInstType_0::SimdFloatMisc            0      0.00%     89.66% # Number of instructions issued per FU type, per thread (Count)
system.cpu1.statIssuedInstType_0::SimdFloatMult            0      0.00%     89.66% # Number of instructions issued per FU type, per thread (Count)
system.cpu1.statIssuedInstType_0::SimdFloatMultAcc            0      0.00%     89.66% # Number of instructions issued per FU type, per thread (Count)
system.cpu1.statIssuedInstType_0::SimdFloatSqrt            0      0.00%     89.66% # Number of instructions issued per FU type, per thread (Count)
system.cpu1.statIssuedInstType_0::SimdReduceAdd            0      0.00%     89.66% # Number of instructions issued per FU type, per thread (Count)
system.cpu1.statIssuedInstType_0::SimdReduceAlu            0      0.00%     89.66% # Number of instructions issued per FU type, per thread (Count)
system.cpu1.statIssuedInstType_0::SimdReduceCmp            0      0.00%     89.66% # Number of instructions issued per FU type, per thread (Count)
system.cpu1.statIssuedInstType_0::SimdFloatReduceAdd            0      0.00%     89.66% # Number of instructions issued per FU type, per thread (Count)
system.cpu1.statIssuedInstType_0::SimdFloatReduceCmp            0      0.00%     89.66% # Number of instructions issued per FU type, per thread (Count)
system.cpu1.statIssuedInstType_0::SimdAes            0      0.00%     89.66% # Number of instructions issued per FU type, per thread (Count)
system.cpu1.statIssuedInstType_0::SimdAesMix            0      0.00%     89.66% # Number of instructions issued per FU type, per thread (Count)
system.cpu1.statIssuedInstType_0::SimdSha1Hash            0      0.00%     89.66% # Number of instructions issued per FU type, per thread (Count)
system.cpu1.statIssuedInstType_0::SimdSha1Hash2            0      0.00%     89.66% # Number of instructions issued per FU type, per thread (Count)
system.cpu1.statIssuedInstType_0::SimdSha256Hash            0      0.00%     89.66% # Number of instructions issued per FU type, per thread (Count)
system.cpu1.statIssuedInstType_0::SimdSha256Hash2            0      0.00%     89.66% # Number of instructions issued per FU type, per thread (Count)
system.cpu1.statIssuedInstType_0::SimdShaSigma2            0      0.00%     89.66% # Number of instructions issued per FU type, per thread (Count)
system.cpu1.statIssuedInstType_0::SimdShaSigma3            0      0.00%     89.66% # Number of instructions issued per FU type, per thread (Count)
system.cpu1.statIssuedInstType_0::SimdPredAlu            0      0.00%     89.66% # Number of instructions issued per FU type, per thread (Count)
system.cpu1.statIssuedInstType_0::MemRead       689597      7.25%     96.91% # Number of instructions issued per FU type, per thread (Count)
system.cpu1.statIssuedInstType_0::MemWrite       239258      2.52%     99.43% # Number of instructions issued per FU type, per thread (Count)
system.cpu1.statIssuedInstType_0::FloatMemRead        35223      0.37%     99.80% # Number of instructions issued per FU type, per thread (Count)
system.cpu1.statIssuedInstType_0::FloatMemWrite        19116      0.20%    100.00% # Number of instructions issued per FU type, per thread (Count)
system.cpu1.statIssuedInstType_0::IprAccess            0      0.00%    100.00% # Number of instructions issued per FU type, per thread (Count)
system.cpu1.statIssuedInstType_0::InstPrefetch            0      0.00%    100.00% # Number of instructions issued per FU type, per thread (Count)
system.cpu1.statIssuedInstType_0::total       9511947                       # Number of instructions issued per FU type, per thread (Count)
system.cpu1.issueRate                        0.792312                       # Inst issue rate ((Count/Cycle))
system.cpu1.fuBusy                              72161                       # FU busy when requested (Count)
system.cpu1.fuBusyRate                       0.007586                       # FU busy rate (busy events/executed inst) ((Count/Count))
system.cpu1.intInstQueueReads                29706095                       # Number of integer instruction queue reads (Count)
system.cpu1.intInstQueueWrites               11176795                       # Number of integer instruction queue writes (Count)
system.cpu1.intInstQueueWakeupAccesses        9314901                       # Number of integer instruction queue wakeup accesses (Count)
system.cpu1.fpInstQueueReads                   239140                       # Number of floating instruction queue reads (Count)
system.cpu1.fpInstQueueWrites                  182791                       # Number of floating instruction queue writes (Count)
system.cpu1.fpInstQueueWakeupAccesses          114029                       # Number of floating instruction queue wakeup accesses (Count)
system.cpu1.vecInstQueueReads                       0                       # Number of vector instruction queue reads (Count)
system.cpu1.vecInstQueueWrites                      0                       # Number of vector instruction queue writes (Count)
system.cpu1.vecInstQueueWakeupAccesses              0                       # Number of vector instruction queue wakeup accesses (Count)
system.cpu1.intAluAccesses                    9418876                       # Number of integer alu accesses (Count)
system.cpu1.fpAluAccesses                      120596                       # Number of floating point alu accesses (Count)
system.cpu1.vecAluAccesses                          0                       # Number of vector alu accesses (Count)
system.cpu1.numInsts                          9463962                       # Number of executed instructions (Count)
system.cpu1.numLoadInsts                       715630                       # Number of load instructions executed (Count)
system.cpu1.numSquashedInsts                    47985                       # Number of squashed instructions skipped in execute (Count)
system.cpu1.numSwp                                  0                       # Number of swp insts executed (Count)
system.cpu1.numNop                                  0                       # Number of nop insts executed (Count)
system.cpu1.numRefs                            971480                       # Number of memory reference insts executed (Count)
system.cpu1.numBranches                        656801                       # Number of branches executed (Count)
[...]
system.ruby.network.ext_out_link_utilization      4217782                       (Unspecified)
system.ruby.network.flit_network_latency |105700373500                       |209516146500                       | 28977023000                       (Unspecified)
system.ruby.network.flit_queueing_latency |  2179598000                       |  1958084000                       |   148749500                       (Unspecified)
system.ruby.network.flits_injected       |     1000319     23.72%     23.72% |     2919965     69.23%     92.95% |      297500      7.05%    100.00% (Unspecified)
system.ruby.network.flits_injected::total      4217784                       (Unspecified)
system.ruby.network.flits_received       |     1000318     23.72%     23.72% |     2919965     69.23%     92.95% |      297499      7.05%    100.00% (Unspecified)
system.ruby.network.flits_received::total      4217782                       (Unspecified)
system.ruby.network.int_link_utilization     12775109                       (Unspecified)
system.ruby.network.packet_network_latency | 79284364500                       | 69287054000                       | 28977023000                       (Unspecified)
system.ruby.network.packet_queueing_latency |  1772622000                       |   521546000                       |   148749500                       (Unspecified)
system.ruby.network.packets_injected     |      815511     42.29%     42.29% |      815509     42.29%     84.57% |      297500     15.43%    100.00% (Unspecified)
system.ruby.network.packets_injected::total      1928520                       (Unspecified)
system.ruby.network.packets_received     |      815510     42.29%     42.29% |      815509     42.29%     84.57% |      297499     15.43%    100.00% (Unspecified)
system.ruby.network.packets_received::total      1928518                       (Unspecified)
system.ruby.network.routers00.Var_1                 0                       (Unspecified)
system.ruby.network.routers00.Var_2                 0                       (Unspecified)
system.ruby.network.routers00.Var_3                 0                       (Unspecified)
system.ruby.network.routers00.all_counts            0                       (Unspecified)
system.ruby.network.routers00.buffer_reads       755433                       (Unspecified)
system.ruby.network.routers00.buffer_writes       755433                       (Unspecified)
system.ruby.network.routers00.crossbar_activity       755433                       (Unspecified)
system.ruby.network.routers00.detour_counts        53783                       (Unspecified)
system.ruby.network.routers00.regular_var            0                       (Unspecified)
system.ruby.network.routers00.risk_counts            0                       (Unspecified)
system.ruby.network.routers00.sw_input_arbiter_activity       761187                       (Unspecified)
system.ruby.network.routers00.sw_output_arbiter_activity       755433                       (Unspecified)
system.ruby.network.routers01.Var_1                 0                       (Unspecified)
system.ruby.network.routers01.Var_2                 0                       (Unspecified)
system.ruby.network.routers01.Var_3                 0                       (Unspecified)
system.ruby.network.routers01.all_counts            0                       (Unspecified)
system.ruby.network.routers01.buffer_reads      1082872                       (Unspecified)
system.ruby.network.routers01.buffer_writes      1082872                       (Unspecified)
system.ruby.network.routers01.crossbar_activity      1082872                       (Unspecified)
system.ruby.network.routers01.detour_counts        53907                       (Unspecified)
system.ruby.network.routers01.regular_var            0                       (Unspecified)
system.ruby.network.routers01.risk_counts            0                       (Unspecified)
system.ruby.network.routers01.sw_input_arbiter_activity      1095003                       (Unspecified)
system.ruby.network.routers01.sw_output_arbiter_activity      1082872                       (Unspecified)
system.ruby.network.routers02.Var_1                 0                       (Unspecified)
system.ruby.network.routers02.Var_2                 0                       (Unspecified)
system.ruby.network.routers02.Var_3                 0                       (Unspecified)
system.ruby.network.routers02.all_counts            0                       (Unspecified)
system.ruby.network.routers02.buffer_reads      1085802                       (Unspecified)
system.ruby.network.routers02.buffer_writes      1085802                       (Unspecified)
system.ruby.network.routers02.crossbar_activity      1085802                       (Unspecified)
system.ruby.network.routers02.detour_counts        53807                       (Unspecified)
system.ruby.network.routers02.regular_var            0                       (Unspecified)
system.ruby.network.routers02.risk_counts            0                       (Unspecified)
system.ruby.network.routers02.sw_input_arbiter_activity      1098127                       (Unspecified)
system.ruby.network.routers02.sw_output_arbiter_activity      1085802                       (Unspecified)
system.ruby.network.routers03.Var_1                 0                       (Unspecified)
system.ruby.network.routers03.Var_2                 0                       (Unspecified)
system.ruby.network.routers03.Var_3                 0                       (Unspecified)
system.ruby.network.routers03.all_counts            0                       (Unspecified)
system.ruby.network.routers03.buffer_reads       746260                       (Unspecified)
system.ruby.network.routers03.buffer_writes       746260                       (Unspecified)
system.ruby.network.routers03.crossbar_activity       746260                       (Unspecified)
system.ruby.network.routers03.detour_counts        53902                       (Unspecified)
system.ruby.network.routers03.regular_var            0                       (Unspecified)
system.ruby.network.routers03.risk_counts            0                       (Unspecified)
system.ruby.network.routers03.sw_input_arbiter_activity       751660                       (Unspecified)
system.ruby.network.routers03.sw_output_arbiter_activity       746260                       (Unspecified)
system.ruby.network.routers04.Var_1                 0                       (Unspecified)
system.ruby.network.routers04.Var_2                 0                       (Unspecified)
system.ruby.network.routers04.Var_3                 0                       (Unspecified)
system.ruby.network.routers04.all_counts            0                       (Unspecified)
system.ruby.network.routers04.buffer_reads      1054155                       (Unspecified)
system.ruby.network.routers04.buffer_writes      1054155                       (Unspecified)
system.ruby.network.routers04.crossbar_activity      1054155                       (Unspecified)
system.ruby.network.routers04.detour_counts        53868                       (Unspecified)
system.ruby.network.routers04.regular_var            0                       (Unspecified)
system.ruby.network.routers04.risk_counts            0                       (Unspecified)
system.ruby.network.routers04.sw_input_arbiter_activity      1065500                       (Unspecified)
system.ruby.network.routers04.sw_output_arbiter_activity      1054155                       (Unspecified)
system.ruby.network.routers05.Var_1                 0                       (Unspecified)
system.ruby.network.routers05.Var_2                 0                       (Unspecified)
system.ruby.network.routers05.Var_3                 0                       (Unspecified)
system.ruby.network.routers05.all_counts            0                       (Unspecified)
system.ruby.network.routers05.buffer_reads      1378213                       (Unspecified)
system.ruby.network.routers05.buffer_writes      1378213                       (Unspecified)
system.ruby.network.routers05.crossbar_activity      1378213                       (Unspecified)
system.ruby.network.routers05.detour_counts        53883                       (Unspecified)
system.ruby.network.routers05.regular_var            0                       (Unspecified)
system.ruby.network.routers05.risk_counts            0                       (Unspecified)
system.ruby.network.routers05.sw_input_arbiter_activity      1396310                       (Unspecified)
system.ruby.network.routers05.sw_output_arbiter_activity      1378213                       (Unspecified)
system.ruby.network.routers06.Var_1                 0                       (Unspecified)
system.ruby.network.routers06.Var_2                 0                       (Unspecified)
system.ruby.network.routers06.Var_3                 0                       (Unspecified)
system.ruby.network.routers06.all_counts            0                       (Unspecified)
system.ruby.network.routers06.buffer_reads      1378613                       (Unspecified)
system.ruby.network.routers06.buffer_writes      1378613                       (Unspecified)
system.ruby.network.routers06.crossbar_activity      1378613                       (Unspecified)
system.ruby.network.routers06.detour_counts        53869                       (Unspecified)
system.ruby.network.routers06.regular_var            0                       (Unspecified)
system.ruby.network.routers06.risk_counts            0                       (Unspecified)
system.ruby.network.routers06.sw_input_arbiter_activity      1396897                       (Unspecified)
system.ruby.network.routers06.sw_output_arbiter_activity      1378613                       (Unspecified)
system.ruby.network.routers07.Var_1                 0                       (Unspecified)
system.ruby.network.routers07.Var_2                 0                       (Unspecified)
system.ruby.network.routers07.Var_3                 0                       (Unspecified)
system.ruby.network.routers07.all_counts            0                       (Unspecified)
system.ruby.network.routers07.buffer_reads      1042542                       (Unspecified)
system.ruby.network.routers07.buffer_writes      1042542                       (Unspecified)
system.ruby.network.routers07.crossbar_activity      1042542                       (Unspecified)
system.ruby.network.routers07.detour_counts        53999                       (Unspecified)
system.ruby.network.routers07.regular_var            0                       (Unspecified)
system.ruby.network.routers07.risk_counts            0                       (Unspecified)
system.ruby.network.routers07.sw_input_arbiter_activity      1054121                       (Unspecified)
system.ruby.network.routers07.sw_output_arbiter_activity      1042542                       (Unspecified)
system.ruby.network.routers08.Var_1                 0                       (Unspecified)
system.ruby.network.routers08.Var_2                 0                       (Unspecified)
system.ruby.network.routers08.Var_3                 0                       (Unspecified)
system.ruby.network.routers08.all_counts            0                       (Unspecified)
system.ruby.network.routers08.buffer_reads      1051798                       (Unspecified)
system.ruby.network.routers08.buffer_writes      1051798                       (Unspecified)
system.ruby.network.routers08.crossbar_activity      1051798                       (Unspecified)
system.ruby.network.routers08.detour_counts        53859                       (Unspecified)
system.ruby.network.routers08.regular_var            0                       (Unspecified)
system.ruby.network.routers08.risk_counts            0                       (Unspecified)
system.ruby.network.routers08.sw_input_arbiter_activity      1063092                       (Unspecified)
system.ruby.network.routers08.sw_output_arbiter_activity      1051798                       (Unspecified)
system.ruby.network.routers09.Var_1                 0                       (Unspecified)
system.ruby.network.routers09.Var_2                 0                       (Unspecified)
system.ruby.network.routers09.Var_3                 0                       (Unspecified)
system.ruby.network.routers09.all_counts            0                       (Unspecified)
system.ruby.network.routers09.buffer_reads      1380461                       (Unspecified)
system.ruby.network.routers09.buffer_writes      1380461                       (Unspecified)
system.ruby.network.routers09.crossbar_activity      1380461                       (Unspecified)
system.ruby.network.routers09.detour_counts        53749                       (Unspecified)
system.ruby.network.routers09.regular_var            0                       (Unspecified)
system.ruby.network.routers09.risk_counts            0                       (Unspecified)
system.ruby.network.routers09.sw_input_arbiter_activity      1398596                       (Unspecified)
system.ruby.network.routers09.sw_output_arbiter_activity      1380461                       (Unspecified)
system.ruby.network.routers10.Var_1                 0                       (Unspecified)
system.ruby.network.routers10.Var_2                 0                       (Unspecified)
system.ruby.network.routers10.Var_3                 0                       (Unspecified)
system.ruby.network.routers10.all_counts            0                       (Unspecified)
system.ruby.network.routers10.buffer_reads      1378073                       (Unspecified)
system.ruby.network.routers10.buffer_writes      1378073                       (Unspecified)
system.ruby.network.routers10.crossbar_activity      1378073                       (Unspecified)
system.ruby.network.routers10.detour_counts        53789                       (Unspecified)
system.ruby.network.routers10.regular_var            0                       (Unspecified)
system.ruby.network.routers10.risk_counts            0                       (Unspecified)
system.ruby.network.routers10.sw_input_arbiter_activity      1396151                       (Unspecified)
system.ruby.network.routers10.sw_output_arbiter_activity      1378073                       (Unspecified)
system.ruby.network.routers11.Var_1                 0                       (Unspecified)
system.ruby.network.routers11.Var_2                 0                       (Unspecified)
system.ruby.network.routers11.Var_3                 0                       (Unspecified)
system.ruby.network.routers11.all_counts            0                       (Unspecified)
system.ruby.network.routers11.buffer_reads      1038768                       (Unspecified)
system.ruby.network.routers11.buffer_writes      1038768                       (Unspecified)
system.ruby.network.routers11.crossbar_activity      1038768                       (Unspecified)
system.ruby.network.routers11.detour_counts        54006                       (Unspecified)
system.ruby.network.routers11.regular_var            0                       (Unspecified)
system.ruby.network.routers11.risk_counts            0                       (Unspecified)
system.ruby.network.routers11.sw_input_arbiter_activity      1049862                       (Unspecified)
system.ruby.network.routers11.sw_output_arbiter_activity      1038768                       (Unspecified)
system.ruby.network.routers12.Var_1                 0                       (Unspecified)
system.ruby.network.routers12.Var_2                 0                       (Unspecified)
system.ruby.network.routers12.Var_3                 0                       (Unspecified)
system.ruby.network.routers12.all_counts            0                       (Unspecified)
system.ruby.network.routers12.buffer_reads       743364                       (Unspecified)
system.ruby.network.routers12.buffer_writes       743364                       (Unspecified)
system.ruby.network.routers12.crossbar_activity       743364                       (Unspecified)
system.ruby.network.routers12.detour_counts        53890                       (Unspecified)
system.ruby.network.routers12.regular_var            0                       (Unspecified)
system.ruby.network.routers12.risk_counts            0                       (Unspecified)
system.ruby.network.routers12.sw_input_arbiter_activity       748749                       (Unspecified)
system.ruby.network.routers12.sw_output_arbiter_activity       743364                       (Unspecified)
system.ruby.network.routers13.Var_1                 0                       (Unspecified)
system.ruby.network.routers13.Var_2                 0                       (Unspecified)
system.ruby.network.routers13.Var_3                 0                       (Unspecified)
system.ruby.network.routers13.all_counts            0                       (Unspecified)
system.ruby.network.routers13.buffer_reads      1072472                       (Unspecified)
system.ruby.network.routers13.buffer_writes      1072472                       (Unspecified)
system.ruby.network.routers13.crossbar_activity      1072472                       (Unspecified)
system.ruby.network.routers13.detour_counts        53848                       (Unspecified)
system.ruby.network.routers13.regular_var            0                       (Unspecified)
system.ruby.network.routers13.risk_counts            0                       (Unspecified)
system.ruby.network.routers13.sw_input_arbiter_activity      1084291                       (Unspecified)
system.ruby.network.routers13.sw_output_arbiter_activity      1072472                       (Unspecified)
system.ruby.network.routers14.Var_1                 0                       (Unspecified)
system.ruby.network.routers14.Var_2                 0                       (Unspecified)
system.ruby.network.routers14.Var_3                 0                       (Unspecified)
system.ruby.network.routers14.all_counts            0                       (Unspecified)
system.ruby.network.routers14.buffer_reads      1066716                       (Unspecified)
system.ruby.network.routers14.buffer_writes      1066716                       (Unspecified)
system.ruby.network.routers14.crossbar_activity      1066716                       (Unspecified)
system.ruby.network.routers14.detour_counts        54041                       (Unspecified)
system.ruby.network.routers14.regular_var            0                       (Unspecified)
system.ruby.network.routers14.risk_counts            0                       (Unspecified)
system.ruby.network.routers14.sw_input_arbiter_activity      1078633                       (Unspecified)
system.ruby.network.routers14.sw_output_arbiter_activity      1066716                       (Unspecified)
system.ruby.network.routers15.Var_1                 0                       (Unspecified)
system.ruby.network.routers15.Var_2                 0                       (Unspecified)
system.ruby.network.routers15.Var_3                 0                       (Unspecified)
system.ruby.network.routers15.all_counts            0                       (Unspecified)
system.ruby.network.routers15.buffer_reads       737349                       (Unspecified)
system.ruby.network.routers15.buffer_writes       737349                       (Unspecified)
system.ruby.network.routers15.crossbar_activity       737349                       (Unspecified)
system.ruby.network.routers15.detour_counts        54023                       (Unspecified)
system.ruby.network.routers15.regular_var            0                       (Unspecified)
system.ruby.network.routers15.risk_counts            0                       (Unspecified)
system.ruby.network.routers15.sw_input_arbiter_activity       742571                       (Unspecified)
system.ruby.network.routers15.sw_output_arbiter_activity       737349                       (Unspecified)

---------- End Simulation Statistics   ----------
