
---------- Begin Simulation Statistics ----------
simSeconds                                   0.007029                       # Number of seconds simulated (Second)
simTicks                                   7029059000                       # Number of ticks simulated (Tick)
finalTick                                  7029059000                       # Number of ticks from beginning of simulation (restored from checkpoints and never reset) (Tick)
simFreq                                  1000000000000                       # The number of ticks per simulated second ((Tick/Second))
hostSeconds                                   1444.99                       # Real time elapsed on the host (Second)
hostTickRate                                  4864420                       # The number of ticks simulated per host second (ticks/s) ((Tick/Second))
hostMemory                                   11405988                       # Number of bytes of host memory used (Byte)
simInsts                                    149979785                       # Number of instructions simulated (Count)
simOps                                      237507342                       # Number of ops (including micro ops) simulated (Count)
hostInstRate                                   103793                       # Simulator instruction rate (inst/s) ((Count/Second))
hostOpRate                                     164366                       # Simulator op (including micro ops) rate (op/s) ((Count/Second))
system.clk_domain.clock                          1000                       # Clock period in ticks (Tick)
system.cpu0.numCycles                        14058119                       # Number of cpu cycles simulated (Cycle)
system.cpu0.numWorkItemsStarted                     0                       # Number of work items this cpu started (Count)
system.cpu0.numWorkItemsCompleted                   0                       # Number of work items this cpu completed (Count)
system.cpu0.instsAdded                       15573836                       # Number of instructions added to the IQ (excludes non-spec) (Count)
system.cpu0.nonSpecInstsAdded                     881                       # Number of non-speculative instructions added to the IQ (Count)
system.cpu0.instsIssued                      14969208                       # Number of instructions issued (Count)
system.cpu0.squashedInstsIssued                  2864                       # Number of squashed instructions issued (Count)
system.cpu0.squashedInstsExamined             1484573                       # Number of squashed instructions iterated over during squash; mainly for profiling (Count)
system.cpu0.squashedOperandsExamined          3125267                       # Number of squashed operands that are examined and possibly removed from graph (Count)
system.cpu0.squashedNonSpecRemoved                148                       # Number of squashed non-spec instructions that were removed (Count)
system.cpu0.numIssuedDist::samples           12926708                       # Number of insts issued each cycle (Count)
system.cpu0.numIssuedDist::mean              1.158006                       # Number of insts issued each cycle (Count)
system.cpu0.numIssuedDist::stdev             1.739939                       # Number of insts issued each cycle (Count)
system.cpu0.numIssuedDist::underflows               0      0.00%      0.00% # Number of insts issued each cycle (Count)
system.cpu0.numIssuedDist::0                  8127853     62.88%     62.88% # Number of insts issued each cycle (Count)
system.cpu0.numIssuedDist::1                   464000      3.59%     66.47% # Number of insts issued each cycle (Count)
system.cpu0.numIssuedDist::2                  1313612     10.16%     76.63% # Number of insts issued each cycle (Count)
system.cpu0.numIssuedDist::3                  1441990     11.16%     87.78% # Number of insts issued each cycle (Count)
system.cpu0.numIssuedDist::4                   828289      6.41%     94.19% # Number of insts issued each cycle (Count)
system.cpu0.numIssuedDist::5                   435531      3.37%     97.56% # Number of insts issued each cycle (Count)
system.cpu0.numIssuedDist::6                   188773      1.46%     99.02% # Number of insts issued each cycle (Count)
system.cpu0.numIssuedDist::7                    84715      0.66%     99.68% # Number of insts issued each cycle (Count)
system.cpu0.numIssuedDist::8                    41945      0.32%    100.00% # Number of insts issued each cycle (Count)
system.cpu0.numIssuedDist::overflows                0      0.00%    100.00% # Number of insts issued each cycle (Count)
system.cpu0.numIssuedDist::min_value                0                       # Number of insts issued each cycle (Count)
system.cpu0.numIssuedDist::max_value                8                       # Number of insts issued each cycle (Count)
system.cpu0.numIssuedDist::total             12926708                       # Number of insts issued each cycle (Count)
system.cpu0.statFuBusy::No_OpClass                  0      0.00%      0.00% # attempts to use FU when none available (Count)
system.cpu0.statFuBusy::IntAlu                  55571     71.76%     71.76% # attempts to use FU when none available (Count)
system.cpu0.statFuBusy::IntMult                     0      0.00%     71.76% # attempts to use FU when none available (Count)
system.cpu0.statFuBusy::IntDiv                      0      0.00%     71.76% # attempts to use FU when none available (Count)
system.cpu0.statFuBusy::FloatAdd                    0      0.00%     71.76% # attempts to use FU when none available (Count)
system.cpu0.statFuBusy::FloatCmp                    0      0.00%     71.76% # attempts to use FU when none available (Count)
system.cpu0.statFuBusy::FloatCvt                    1      0.00%     71.76% # attempts to use FU when none available (Count)
system.cpu0.statFuBusy::FloatMult                   0      0.00%     71.76% # attempts to use FU when none available (Count)
system.cpu0.statFuBusy::FloatMultAcc                0      0.00%     71.76% # attempts to use FU when none available (Count)
system.cpu0.statFuBusy::FloatDiv                    0      0.00%     71.76% # attempts to use FU when none available (Count)
system.cpu0.statFuBusy::FloatMisc                   0      0.00%     71.76% # attempts to use FU when none available (Count)
system.cpu0.statFuBusy::FloatSqrt                   0      0.00%     71.76% # attempts to use FU when none available (Count)
system.cpu0.statFuBusy::SimdAdd                     0      0.00%     71.76% # attempts to use FU when none available (Count)
system.cpu0.statFuBusy::SimdAddAcc                  0      0.00%     71.76% # attempts to use FU when none available (Count)
system.cpu0.statFuBusy::SimdAlu                   121      0.16%     71.91% # attempts to use FU when none available (Count)
system.cpu0.statFuBusy::SimdCmp                     0      0.00%     71.91% # attempts to use FU when none available (Count)
system.cpu0.statFuBusy::SimdCvt                   169      0.22%     72.13% # attempts to use FU when none available (Count)
system.cpu0.statFuBusy::SimdMisc                    0      0.00%     72.13% # attempts to use FU when none available (Count)
system.cpu0.statFuBusy::SimdMult                    0      0.00%     72.13% # attempts to use FU when none available (Count)
system.cpu0.statFuBusy::SimdMultAcc                 0      0.00%     72.13% # attempts to use FU when none available (Count)
system.cpu0.statFuBusy::SimdShift                 207      0.27%     72.40% # attempts to use FU when none available (Count)
system.cpu0.statFuBusy::SimdShiftAcc                0      0.00%     72.40% # attempts to use FU when none available (Count)
system.cpu0.statFuBusy::SimdDiv                     0      0.00%     72.40% # attempts to use FU when none available (Count)
system.cpu0.statFuBusy::SimdSqrt                    0      0.00%     72.40% # attempts to use FU when none available (Count)
system.cpu0.statFuBusy::SimdFloatAdd                0      0.00%     72.40% # attempts to use FU when none available (Count)
system.cpu0.statFuBusy::SimdFloatAlu                0      0.00%     72.40% # attempts to use FU when none available (Count)
system.cpu0.statFuBusy::SimdFloatCmp                0      0.00%     72.40% # attempts to use FU when none available (Count)
system.cpu0.statFuBusy::SimdFloatCvt                0      0.00%     72.40% # attempts to use FU when none available (Count)
system.cpu0.statFuBusy::SimdFloatDiv                0      0.00%     72.40% # attempts to use FU when none available (Count)
system.cpu0.statFuBusy::SimdFloatMisc               0      0.00%     72.40% # attempts to use FU when none available (Count)
system.cpu0.statFuBusy::SimdFloatMult               0      0.00%     72.40% # attempts to use FU when none available (Count)
system.cpu0.statFuBusy::SimdFloatMultAcc            0      0.00%     72.40% # attempts to use FU when none available (Count)
system.cpu0.statFuBusy::SimdFloatSqrt               0      0.00%     72.40% # attempts to use FU when none available (Count)
system.cpu0.statFuBusy::SimdReduceAdd               0      0.00%     72.40% # attempts to use FU when none available (Count)
system.cpu0.statFuBusy::SimdReduceAlu               0      0.00%     72.40% # attempts to use FU when none available (Count)
system.cpu0.statFuBusy::SimdReduceCmp               0      0.00%     72.40% # attempts to use FU when none available (Count)
system.cpu0.statFuBusy::SimdFloatReduceAdd            0      0.00%     72.40% # attempts to use FU when none available (Count)
system.cpu0.statFuBusy::SimdFloatReduceCmp            0      0.00%     72.40% # attempts to use FU when none available (Count)
system.cpu0.statFuBusy::SimdAes                     0      0.00%     72.40% # attempts to use FU when none available (Count)
system.cpu0.statFuBusy::SimdAesMix                  0      0.00%     72.40% # attempts to use FU when none available (Count)
system.cpu0.statFuBusy::SimdSha1Hash                0      0.00%     72.40% # attempts to use FU when none available (Count)
system.cpu0.statFuBusy::SimdSha1Hash2               0      0.00%     72.40% # attempts to use FU when none available (Count)
system.cpu0.statFuBusy::SimdSha256Hash              0      0.00%     72.40% # attempts to use FU when none available (Count)
system.cpu0.statFuBusy::SimdSha256Hash2             0      0.00%     72.40% # attempts to use FU when none available (Count)
system.cpu0.statFuBusy::SimdShaSigma2               0      0.00%     72.40% # attempts to use FU when none available (Count)
system.cpu0.statFuBusy::SimdShaSigma3               0      0.00%     72.40% # attempts to use FU when none available (Count)
system.cpu0.statFuBusy::SimdPredAlu                 0      0.00%     72.40% # attempts to use FU when none available (Count)
system.cpu0.statFuBusy::MemRead                 11920     15.39%     87.79% # attempts to use FU when none available (Count)
system.cpu0.statFuBusy::MemWrite                 7659      9.89%     97.68% # attempts to use FU when none available (Count)
system.cpu0.statFuBusy::FloatMemRead             1334      1.72%     99.40% # attempts to use FU when none available (Count)
system.cpu0.statFuBusy::FloatMemWrite             463      0.60%    100.00% # attempts to use FU when none available (Count)
system.cpu0.statFuBusy::IprAccess                   0      0.00%    100.00% # attempts to use FU when none available (Count)
system.cpu0.statFuBusy::InstPrefetch                0      0.00%    100.00% # attempts to use FU when none available (Count)
system.cpu0.statIssuedInstType_0::No_OpClass        74057      0.49%      0.49% # Number of instructions issued per FU type, per thread (Count)
system.cpu0.statIssuedInstType_0::IntAlu     13676947     91.37%     91.86% # Number of instructions issued per FU type, per thread (Count)
system.cpu0.statIssuedInstType_0::IntMult           35      0.00%     91.86% # Number of instructions issued per FU type, per thread (Count)
system.cpu0.statIssuedInstType_0::IntDiv        38433      0.26%     92.12% # Number of instructions issued per FU type, per thread (Count)
system.cpu0.statIssuedInstType_0::FloatAdd         4232      0.03%     92.15% # Number of instructions issued per FU type, per thread (Count)
system.cpu0.statIssuedInstType_0::FloatCmp            0      0.00%     92.15% # Number of instructions issued per FU type, per thread (Count)
system.cpu0.statIssuedInstType_0::FloatCvt         1438      0.01%     92.16% # Number of instructions issued per FU type, per thread (Count)
system.cpu0.statIssuedInstType_0::FloatMult            0      0.00%     92.16% # Number of instructions issued per FU type, per thread (Count)
system.cpu0.statIssuedInstType_0::FloatMultAcc            0      0.00%     92.16% # Number of instructions issued per FU type, per thread (Count)
system.cpu0.statIssuedInstType_0::FloatDiv            0      0.00%     92.16% # Number of instructions issued per FU type, per thread (Count)
system.cpu0.statIssuedInstType_0::FloatMisc            0      0.00%     92.16% # Number of instructions issued per FU type, per thread (Count)
system.cpu0.statIssuedInstType_0::FloatSqrt            0      0.00%     92.16% # Number of instructions issued per FU type, per thread (Count)
system.cpu0.statIssuedInstType_0::SimdAdd         8418      0.06%     92.21% # Number of instructions issued per FU type, per thread (Count)
system.cpu0.statIssuedInstType_0::SimdAddAcc            0      0.00%     92.21% # Number of instructions issued per FU type, per thread (Count)
system.cpu0.statIssuedInstType_0::SimdAlu        17075      0.11%     92.33% # Number of instructions issued per FU type, per thread (Count)
system.cpu0.statIssuedInstType_0::SimdCmp            0      0.00%     92.33% # Number of instructions issued per FU type, per thread (Count)
system.cpu0.statIssuedInstType_0::SimdCvt        18689      0.12%     92.45% # Number of instructions issued per FU type, per thread (Count)
system.cpu0.statIssuedInstType_0::SimdMisc         8833      0.06%     92.51% # Number of instructions issued per FU type, per thread (Count)
system.cpu0.statIssuedInstType_0::SimdMult            0      0.00%     92.51% # Number of instructions issued per FU type, per thread (Count)
system.cpu0.statIssuedInstType_0::SimdMultAcc            0      0.00%     92.51% # Number of instructions issued per FU type, per thread (Count)
system.cpu0.statIssuedInstType_0::SimdShift         2927      0.02%     92.53% # Number of instructions issued per FU type, per thread (Count)
system.cpu0.statIssuedInstType_0::SimdShiftAcc            0      0.00%     92.53% # Number of instructions issued per FU type, per thread (Count)
system.cpu0.statIssuedInstType_0::SimdDiv            0      0.00%     92.53% # Number of instructions issued per FU type, per thread (Count)
system.cpu0.statIssuedInstType_0::SimdSqrt            0      0.00%     92.53% # Number of instructions issued per FU type, per thread (Count)
system.cpu0.statIssuedInstType_0::SimdFloatAdd            0      0.00%     92.53% # Number of instructions issued per FU type, per thread (Count)
system.cpu0.statIssuedInstType_0::SimdFloatAlu            0      0.00%     92.53% # Number of instructions issued per FU type, per thread (Count)
system.cpu0.statIssuedInstType_0::SimdFloatCmp            0      0.00%     92.53% # Number of instructions issued per FU type, per thread (Count)
system.cpu0.statIssuedInstType_0::SimdFloatCvt            0      0.00%     92.53% # Number of instructions issued per FU type, per thread (Count)
system.cpu0.statIssuedInstType_0::SimdFloatDiv            0      0.00%     92.53% # Number of instructions issued per FU type, per thread (Count)
system.cpu0.statIssuedInstType_0::SimdFloatMisc            0      0.00%     92.53% # Number of instructions issued per FU type, per thread (Count)
system.cpu0.statIssuedInstType_0::SimdFloatMult            0      0.00%     92.53% # Number of instructions issued per FU type, per thread (Count)
system.cpu0.statIssuedInstType_0::SimdFloatMultAcc            0      0.00%     92.53% # Number of instructions issued per FU type, per thread (Count)
system.cpu0.statIssuedInstType_0::SimdFloatSqrt            0      0.00%     92.53% # Number of instructions issued per FU type, per thread (Count)
system.cpu0.statIssuedInstType_0::SimdReduceAdd            0      0.00%     92.53% # Number of instructions issued per FU type, per thread (Count)
system.cpu0.statIssuedInstType_0::SimdReduceAlu            0      0.00%     92.53% # Number of instructions issued per FU type, per thread (Count)
system.cpu0.statIssuedInstType_0::SimdReduceCmp            0      0.00%     92.53% # Number of instructions issued per FU type, per thread (Count)
system.cpu0.statIssuedInstType_0::SimdFloatReduceAdd            0      0.00%     92.53% # Number of instructions issued per FU type, per thread (Count)
system.cpu0.statIssuedInstType_0::SimdFloatReduceCmp            0      0.00%     92.53% # Number of instructions issued per FU type, per thread (Count)
system.cpu0.statIssuedInstType_0::SimdAes            0      0.00%     92.53% # Number of instructions issued per FU type, per thread (Count)
system.cpu0.statIssuedInstType_0::SimdAesMix            0      0.00%     92.53% # Number of instructions issued per FU type, per thread (Count)
system.cpu0.statIssuedInstType_0::SimdSha1Hash            0      0.00%     92.53% # Number of instructions issued per FU type, per thread (Count)
system.cpu0.statIssuedInstType_0::SimdSha1Hash2            0      0.00%     92.53% # Number of instructions issued per FU type, per thread (Count)
system.cpu0.statIssuedInstType_0::SimdSha256Hash            0      0.00%     92.53% # Number of instructions issued per FU type, per thread (Count)
system.cpu0.statIssuedInstType_0::SimdSha256Hash2            0      0.00%     92.53% # Number of instructions issued per FU type, per thread (Count)
system.cpu0.statIssuedInstType_0::SimdShaSigma2            0      0.00%     92.53% # Number of instructions issued per FU type, per thread (Count)
system.cpu0.statIssuedInstType_0::SimdShaSigma3            0      0.00%     92.53% # Number of instructions issued per FU type, per thread (Count)
system.cpu0.statIssuedInstType_0::SimdPredAlu            0      0.00%     92.53% # Number of instructions issued per FU type, per thread (Count)
system.cpu0.statIssuedInstType_0::MemRead       767739      5.13%     97.66% # Number of instructions issued per FU type, per thread (Count)
system.cpu0.statIssuedInstType_0::MemWrite       298449      1.99%     99.65% # Number of instructions issued per FU type, per thread (Count)
system.cpu0.statIssuedInstType_0::FloatMemRead        33802      0.23%     99.88% # Number of instructions issued per FU type, per thread (Count)
system.cpu0.statIssuedInstType_0::FloatMemWrite        18134      0.12%    100.00% # Number of instructions issued per FU type, per thread (Count)
system.cpu0.statIssuedInstType_0::IprAccess            0      0.00%    100.00% # Number of instructions issued per FU type, per thread (Count)
system.cpu0.statIssuedInstType_0::InstPrefetch            0      0.00%    100.00% # Number of instructions issued per FU type, per thread (Count)
system.cpu0.statIssuedInstType_0::total      14969208                       # Number of instructions issued per FU type, per thread (Count)
system.cpu0.issueRate                        1.064809                       # Inst issue rate ((Count/Cycle))
system.cpu0.fuBusy                              77445                       # FU busy when requested (Count)
system.cpu0.fuBusyRate                       0.005174                       # FU busy rate (busy events/executed inst) ((Count/Count))
system.cpu0.intInstQueueReads                42713456                       # Number of integer instruction queue reads (Count)
system.cpu0.intInstQueueWrites               16890561                       # Number of integer instruction queue writes (Count)
system.cpu0.intInstQueueWakeupAccesses       14769253                       # Number of integer instruction queue wakeup accesses (Count)
system.cpu0.fpInstQueueReads                   231973                       # Number of floating instruction queue reads (Count)
system.cpu0.fpInstQueueWrites                  176964                       # Number of floating instruction queue writes (Count)
system.cpu0.fpInstQueueWakeupAccesses          110828                       # Number of floating instruction queue wakeup accesses (Count)
system.cpu0.vecInstQueueReads                       0                       # Number of vector instruction queue reads (Count)
system.cpu0.vecInstQueueWrites                      0                       # Number of vector instruction queue writes (Count)
system.cpu0.vecInstQueueWakeupAccesses              0                       # Number of vector instruction queue wakeup accesses (Count)
system.cpu0.intAluAccesses                   14855608                       # Number of integer alu accesses (Count)
system.cpu0.fpAluAccesses                      116988                       # Number of floating point alu accesses (Count)
system.cpu0.vecAluAccesses                          0                       # Number of vector alu accesses (Count)
system.cpu0.numInsts                         14915191                       # Number of executed instructions (Count)
system.cpu0.numLoadInsts                       790799                       # Number of load instructions executed (Count)
system.cpu0.numSquashedInsts                    54013                       # Number of squashed instructions skipped in execute (Count)
system.cpu0.numSwp                                  0                       # Number of swp insts executed (Count)
system.cpu0.numNop                                  0                       # Number of nop insts executed (Count)
system.cpu0.numRefs                           1103142                       # Number of memory reference insts executed (Count)
system.cpu0.numBranches                        928163                       # Number of branches executed (Count)
system.cpu0.numStoreInsts                      312343                       # Number of stores executed (Count)
system.cpu0.numRate                          1.060966                       # Inst execution rate ((Count/Cycle))
system.cpu0.timesIdled                           2202                       # Number of times that the entire CPU went into an idle state and unscheduled itself (Count)
system.cpu0.idleCycles                        1131411                       # Total number of cycles that the CPU has spent unscheduled due to idling (Cycle)
system.cpu0.committedInsts                    8883232                       # Number of Instructions Simulated (Count)
system.cpu0.committedOps                     14090053                       # Number of Ops (including micro ops) Simulated (Count)
system.cpu0.cpi                              1.582546                       # CPI: Cycles Per Instruction ((Cycle/Count))
system.cpu0.totalCpi                         1.582546                       # CPI: Total CPI of All Threads ((Cycle/Count))
system.cpu0.ipc                              0.631893                       # IPC: Instructions Per Cycle ((Count/Cycle))
system.cpu0.totalIpc                         0.631893                       # IPC: Total IPC of All Threads ((Count/Cycle))
system.cpu0.intRegfileReads                  26167283                       # Number of integer regfile reads (Count)
system.cpu0.intRegfileWrites                 12233072                       # Number of integer regfile writes (Count)
system.cpu0.fpRegfileReads                     151024                       # Number of floating regfile reads (Count)
system.cpu0.fpRegfileWrites                     83744                       # Number of floating regfile writes (Count)
system.cpu0.ccRegfileReads                   16894137                       # number of cc regfile reads (Count)
system.cpu0.ccRegfileWrites                   8149956                       # number of cc regfile writes (Count)
system.cpu0.miscRegfileReads                  3005311                       # number of misc regfile reads (Count)
system.cpu0.miscRegfileWrites                     729                       # number of misc regfile writes (Count)
system.cpu0.MemDepUnit__0.insertedLoads        893318                       # Number of loads inserted to the mem dependence unit. (Count)
system.cpu0.MemDepUnit__0.insertedStores       386889                       # Number of stores inserted to the mem dependence unit. (Count)
system.cpu0.MemDepUnit__0.conflictingLoads       105852                       # Number of conflicting loads. (Count)
system.cpu0.MemDepUnit__0.conflictingStores        89509                       # Number of conflicting stores. (Count)
system.cpu0.MemDepUnit__1.insertedLoads             0                       # Number of loads inserted to the mem dependence unit. (Count)
system.cpu0.MemDepUnit__1.insertedStores            0                       # Number of stores inserted to the mem dependence unit. (Count)
system.cpu0.MemDepUnit__1.conflictingLoads            0                       # Number of conflicting loads. (Count)
system.cpu0.MemDepUnit__1.conflictingStores            0                       # Number of conflicting stores. (Count)
system.cpu0.MemDepUnit__2.insertedLoads             0                       # Number of loads inserted to the mem dependence unit. (Count)
system.cpu0.MemDepUnit__2.insertedStores            0                       # Number of stores inserted to the mem dependence unit. (Count)
system.cpu0.MemDepUnit__2.conflictingLoads            0                       # Number of conflicting loads. (Count)
system.cpu0.MemDepUnit__2.conflictingStores            0                       # Number of conflicting stores. (Count)
system.cpu0.MemDepUnit__3.insertedLoads             0                       # Number of loads inserted to the mem dependence unit. (Count)
system.cpu0.MemDepUnit__3.insertedStores            0                       # Number of stores inserted to the mem dependence unit. (Count)
system.cpu0.MemDepUnit__3.conflictingLoads            0                       # Number of conflicting loads. (Count)
system.cpu0.MemDepUnit__3.conflictingStores            0                       # Number of conflicting stores. (Count)
system.cpu0.branchPred.lookups                1081477                       # Number of BP lookups (Count)
system.cpu0.branchPred.condPredicted          1016450                       # Number of conditional branches predicted (Count)
system.cpu0.branchPred.condIncorrect            21983                       # Number of conditional branches incorrect (Count)
system.cpu0.branchPred.BTBLookups              777860                       # Number of BTB lookups (Count)
system.cpu0.branchPred.BTBUpdates                9930                       # Number of BTB updates (Count)
system.cpu0.branchPred.BTBHits                 773938                       # Number of BTB hits (Count)
system.cpu0.branchPred.BTBHitRatio           0.994958                       # BTB Hit Ratio (Ratio)
system.cpu0.branchPred.RASUsed                  14785                       # Number of times the RAS was used to get a target. (Count)
system.cpu0.branchPred.RASIncorrect                 8                       # Number of incorrect RAS predictions. (Count)
system.cpu0.branchPred.indirectLookups           9573                       # Number of indirect predictor lookups. (Count)
system.cpu0.branchPred.indirectHits              5276                       # Number of indirect target hits. (Count)
system.cpu0.branchPred.indirectMisses            4297                       # Number of indirect misses. (Count)
system.cpu0.branchPred.indirectMispredicted         1116                       # Number of mispredicted indirect branches. (Count)
system.cpu0.commit.commitSquashedInsts        1475394                       # The number of squashed insts skipped by commit (Count)
system.cpu0.commit.commitNonSpecStalls            733                       # The number of times commit has been forced to stall to communicate backwards (Count)
system.cpu0.commit.branchMispredicts            23231                       # The number of times a branch was mispredicted (Count)
system.cpu0.commit.numCommittedDist::samples     12716644                       # Number of insts commited each cycle (Count)
system.cpu0.commit.numCommittedDist::mean     1.108001                       # Number of insts commited each cycle (Count)
system.cpu0.commit.numCommittedDist::stdev     2.152353                       # Number of insts commited each cycle (Count)
system.cpu0.commit.numCommittedDist::underflows            0      0.00%      0.00% # Number of insts commited each cycle (Count)
system.cpu0.commit.numCommittedDist::0        8280344     65.11%     65.11% # Number of insts commited each cycle (Count)
system.cpu0.commit.numCommittedDist::1        1716261     13.50%     78.61% # Number of insts commited each cycle (Count)
system.cpu0.commit.numCommittedDist::2        1009243      7.94%     86.55% # Number of insts commited each cycle (Count)
system.cpu0.commit.numCommittedDist::3         256323      2.02%     88.56% # Number of insts commited each cycle (Count)
system.cpu0.commit.numCommittedDist::4          57136      0.45%     89.01% # Number of insts commited each cycle (Count)
system.cpu0.commit.numCommittedDist::5         560568      4.41%     93.42% # Number of insts commited each cycle (Count)
system.cpu0.commit.numCommittedDist::6          34743      0.27%     93.69% # Number of insts commited each cycle (Count)
system.cpu0.commit.numCommittedDist::7          69713      0.55%     94.24% # Number of insts commited each cycle (Count)
system.cpu0.commit.numCommittedDist::8         732313      5.76%    100.00% # Number of insts commited each cycle (Count)
system.cpu0.commit.numCommittedDist::overflows            0      0.00%    100.00% # Number of insts commited each cycle (Count)
system.cpu0.commit.numCommittedDist::min_value            0                       # Number of insts commited each cycle (Count)
system.cpu0.commit.numCommittedDist::max_value            8                       # Number of insts commited each cycle (Count)
system.cpu0.commit.numCommittedDist::total     12716644                       # Number of insts commited each cycle (Count)
system.cpu0.commit.instsCommitted             8883232                       # Number of instructions committed (Count)
system.cpu0.commit.opsCommitted              14090053                       # Number of ops (including micro ops) committed (Count)
system.cpu0.commit.memRefs                     936436                       # Number of memory references committed (Count)
system.cpu0.commit.loads                       661032                       # Number of loads committed (Count)
system.cpu0.commit.amos                             0                       # Number of atomic instructions committed (Count)
system.cpu0.commit.membars                          0                       # Number of memory barriers committed (Count)
system.cpu0.commit.branches                    878344                       # Number of branches committed (Count)
system.cpu0.commit.vectorInstructions               0                       # Number of committed Vector instructions. (Count)
system.cpu0.commit.floating                     80818                       # Number of committed floating point instructions. (Count)
system.cpu0.commit.integer                   13969035                       # Number of committed integer instructions. (Count)
system.cpu0.commit.functionCalls                10847                       # Number of function calls committed. (Count)
system.cpu0.commit.committedInstType_0::No_OpClass        65977      0.47%      0.47% # Class of committed instruction (Count)
system.cpu0.commit.committedInstType_0::IntAlu     13006534     92.31%     92.78% # Class of committed instruction (Count)
system.cpu0.commit.committedInstType_0::IntMult           29      0.00%     92.78% # Class of committed instruction (Count)
system.cpu0.commit.committedInstType_0::IntDiv        36080      0.26%     93.03% # Class of committed instruction (Count)
system.cpu0.commit.committedInstType_0::FloatAdd         3064      0.02%     93.06% # Class of committed instruction (Count)
system.cpu0.commit.committedInstType_0::FloatCmp            0      0.00%     93.06% # Class of committed instruction (Count)
system.cpu0.commit.committedInstType_0::FloatCvt         1296      0.01%     93.07% # Class of committed instruction (Count)
system.cpu0.commit.committedInstType_0::FloatMult            0      0.00%     93.07% # Class of committed instruction (Count)
system.cpu0.commit.committedInstType_0::FloatMultAcc            0      0.00%     93.07% # Class of committed instruction (Count)
system.cpu0.commit.committedInstType_0::FloatDiv            0      0.00%     93.07% # Class of committed instruction (Count)
system.cpu0.commit.committedInstType_0::FloatMisc            0      0.00%     93.07% # Class of committed instruction (Count)
system.cpu0.commit.committedInstType_0::FloatSqrt            0      0.00%     93.07% # Class of committed instruction (Count)
system.cpu0.commit.committedInstType_0::SimdAdd         6678      0.05%     93.11% # Class of committed instruction (Count)
system.cpu0.commit.committedInstType_0::SimdAddAcc            0      0.00%     93.11% # Class of committed instruction (Count)
system.cpu0.commit.committedInstType_0::SimdAlu        12106      0.09%     93.20% # Class of committed instruction (Count)
system.cpu0.commit.committedInstType_0::SimdCmp            0      0.00%     93.20% # Class of committed instruction (Count)
system.cpu0.commit.committedInstType_0::SimdCvt        13052      0.09%     93.29% # Class of committed instruction (Count)
system.cpu0.commit.committedInstType_0::SimdMisc         7088      0.05%     93.34% # Class of committed instruction (Count)
system.cpu0.commit.committedInstType_0::SimdMult            0      0.00%     93.34% # Class of committed instruction (Count)
system.cpu0.commit.committedInstType_0::SimdMultAcc            0      0.00%     93.34% # Class of committed instruction (Count)
system.cpu0.commit.committedInstType_0::SimdShift         1713      0.01%     93.35% # Class of committed instruction (Count)
system.cpu0.commit.committedInstType_0::SimdShiftAcc            0      0.00%     93.35% # Class of committed instruction (Count)
system.cpu0.commit.committedInstType_0::SimdDiv            0      0.00%     93.35% # Class of committed instruction (Count)
system.cpu0.commit.committedInstType_0::SimdSqrt            0      0.00%     93.35% # Class of committed instruction (Count)
system.cpu0.commit.committedInstType_0::SimdFloatAdd            0      0.00%     93.35% # Class of committed instruction (Count)
system.cpu0.commit.committedInstType_0::SimdFloatAlu            0      0.00%     93.35% # Class of committed instruction (Count)
system.cpu0.commit.committedInstType_0::SimdFloatCmp            0      0.00%     93.35% # Class of committed instruction (Count)
system.cpu0.commit.committedInstType_0::SimdFloatCvt            0      0.00%     93.35% # Class of committed instruction (Count)
system.cpu0.commit.committedInstType_0::SimdFloatDiv            0      0.00%     93.35% # Class of committed instruction (Count)
system.cpu0.commit.committedInstType_0::SimdFloatMisc            0      0.00%     93.35% # Class of committed instruction (Count)
system.cpu0.commit.committedInstType_0::SimdFloatMult            0      0.00%     93.35% # Class of committed instruction (Count)
system.cpu0.commit.committedInstType_0::SimdFloatMultAcc            0      0.00%     93.35% # Class of committed instruction (Count)
system.cpu0.commit.committedInstType_0::SimdFloatSqrt            0      0.00%     93.35% # Class of committed instruction (Count)
system.cpu0.commit.committedInstType_0::SimdReduceAdd            0      0.00%     93.35% # Class of committed instruction (Count)
system.cpu0.commit.committedInstType_0::SimdReduceAlu            0      0.00%     93.35% # Class of committed instruction (Count)
system.cpu0.commit.committedInstType_0::SimdReduceCmp            0      0.00%     93.35% # Class of committed instruction (Count)
system.cpu0.commit.committedInstType_0::SimdFloatReduceAdd            0      0.00%     93.35% # Class of committed instruction (Count)
system.cpu0.commit.committedInstType_0::SimdFloatReduceCmp            0      0.00%     93.35% # Class of committed instruction (Count)
system.cpu0.commit.committedInstType_0::SimdAes            0      0.00%     93.35% # Class of committed instruction (Count)
system.cpu0.commit.committedInstType_0::SimdAesMix            0      0.00%     93.35% # Class of committed instruction (Count)
system.cpu0.commit.committedInstType_0::SimdSha1Hash            0      0.00%     93.35% # Class of committed instruction (Count)
system.cpu0.commit.committedInstType_0::SimdSha1Hash2            0      0.00%     93.35% # Class of committed instruction (Count)
system.cpu0.commit.committedInstType_0::SimdSha256Hash            0      0.00%     93.35% # Class of committed instruction (Count)
system.cpu0.commit.committedInstType_0::SimdSha256Hash2            0      0.00%     93.35% # Class of committed instruction (Count)
system.cpu0.commit.committedInstType_0::SimdShaSigma2            0      0.00%     93.35% # Class of committed instruction (Count)
system.cpu0.commit.committedInstType_0::SimdShaSigma3            0      0.00%     93.35% # Class of committed instruction (Count)
system.cpu0.commit.committedInstType_0::SimdPredAlu            0      0.00%     93.35% # Class of committed instruction (Count)
system.cpu0.commit.committedInstType_0::MemRead       640011      4.54%     97.90% # Class of committed instruction (Count)
system.cpu0.commit.committedInstType_0::MemWrite       261492      1.86%     99.75% # Class of committed instruction (Count)
system.cpu0.commit.committedInstType_0::FloatMemRead        21021      0.15%     99.90% # Class of committed instruction (Count)
system.cpu0.commit.committedInstType_0::FloatMemWrite        13912      0.10%    100.00% # Class of committed instruction (Count)
system.cpu0.commit.committedInstType_0::IprAccess            0      0.00%    100.00% # Class of committed instruction (Count)
system.cpu0.commit.committedInstType_0::InstPrefetch            0      0.00%    100.00% # Class of committed instruction (Count)
system.cpu0.commit.committedInstType_0::total     14090053                       # Class of committed instruction (Count)
system.cpu0.commit.commitEligibleSamples       732313                       # number cycles where commit BW limit reached (Cycle)
system.cpu0.decode.idleCycles                  901998                       # Number of cycles decode is idle (Cycle)
system.cpu0.decode.blockedCycles              9889424                       # Number of cycles decode is blocked (Cycle)
system.cpu0.decode.runCycles                   913705                       # Number of cycles decode is running (Cycle)
system.cpu0.decode.unblockCycles              1189599                       # Number of cycles decode is unblocking (Cycle)
system.cpu0.decode.squashCycles                 31982                       # Number of cycles decode is squashing (Cycle)
system.cpu0.decode.branchResolved              743280                       # Number of times decode resolved a branch (Count)
system.cpu0.decode.branchMispred                 1084                       # Number of times decode detected a branch misprediction (Count)
system.cpu0.decode.decodedInsts              15965609                       # Number of instructions handled by decode (Count)
system.cpu0.decode.squashedInsts                 5089                       # Number of squashed instructions handled by decode (Count)
system.cpu0.fetch.icacheStallCycles           1376046                       # Number of cycles fetch is stalled on an Icache miss (Cycle)
system.cpu0.fetch.insts                      10239671                       # Number of instructions fetch has processed (Count)
system.cpu0.fetch.branches                    1081477                       # Number of branches that fetch encountered (Count)
system.cpu0.fetch.predictedBranches            793999                       # Number of branches that fetch has predicted taken (Count)
system.cpu0.fetch.cycles                     11267402                       # Number of cycles fetch has run and was not squashing or blocked (Cycle)
system.cpu0.fetch.squashCycles                  66086                       # Number of cycles fetch has spent squashing (Cycle)
system.cpu0.fetch.miscStallCycles               16677                       # Number of cycles fetch has spent waiting on interrupts, or bad addresses, or out of MSHRs (Cycle)
system.cpu0.fetch.pendingTrapStallCycles        15254                       # Number of stall cycles due to pending traps (Cycle)
system.cpu0.fetch.icacheWaitRetryStallCycles       218286                       # Number of stall cycles due to full MSHR (Cycle)
system.cpu0.fetch.cacheLines                  1177549                       # Number of cache lines fetched (Count)
system.cpu0.fetch.icacheSquashes                 7248                       # Number of outstanding Icache misses that were squashed (Count)
system.cpu0.fetch.nisnDist::samples          12926708                       # Number of instructions fetched each cycle (Total) (Count)
system.cpu0.fetch.nisnDist::mean             1.278703                       # Number of instructions fetched each cycle (Total) (Count)
system.cpu0.fetch.nisnDist::stdev            2.650308                       # Number of instructions fetched each cycle (Total) (Count)
system.cpu0.fetch.nisnDist::underflows              0      0.00%      0.00% # Number of instructions fetched each cycle (Total) (Count)
system.cpu0.fetch.nisnDist::0                10054973     77.78%     77.78% # Number of instructions fetched each cycle (Total) (Count)
system.cpu0.fetch.nisnDist::1                  178906      1.38%     79.17% # Number of instructions fetched each cycle (Total) (Count)
system.cpu0.fetch.nisnDist::2                  194425      1.50%     80.67% # Number of instructions fetched each cycle (Total) (Count)
system.cpu0.fetch.nisnDist::3                  265328      2.05%     82.73% # Number of instructions fetched each cycle (Total) (Count)
system.cpu0.fetch.nisnDist::4                  371322      2.87%     85.60% # Number of instructions fetched each cycle (Total) (Count)
system.cpu0.fetch.nisnDist::5                  218660      1.69%     87.29% # Number of instructions fetched each cycle (Total) (Count)
system.cpu0.fetch.nisnDist::6                  194916      1.51%     88.80% # Number of instructions fetched each cycle (Total) (Count)
system.cpu0.fetch.nisnDist::7                  167833      1.30%     90.10% # Number of instructions fetched each cycle (Total) (Count)
system.cpu0.fetch.nisnDist::8                 1280345      9.90%    100.00% # Number of instructions fetched each cycle (Total) (Count)
system.cpu0.fetch.nisnDist::overflows               0      0.00%    100.00% # Number of instructions fetched each cycle (Total) (Count)
system.cpu0.fetch.nisnDist::min_value               0                       # Number of instructions fetched each cycle (Total) (Count)
system.cpu0.fetch.nisnDist::max_value               8                       # Number of instructions fetched each cycle (Total) (Count)
system.cpu0.fetch.nisnDist::total            12926708                       # Number of instructions fetched each cycle (Total) (Count)
system.cpu0.fetch.branchRate                 0.076929                       # Number of branch fetches per cycle (Ratio)
system.cpu0.fetch.rate                       0.728381                       # Number of inst fetches per cycle ((Count/Cycle))
system.cpu0.iew.idleCycles                          0                       # Number of cycles IEW is idle (Cycle)
system.cpu0.iew.squashCycles                    31982                       # Number of cycles IEW is squashing (Cycle)
system.cpu0.iew.blockCycles                   5396174                       # Number of cycles IEW is blocking (Cycle)
system.cpu0.iew.unblockCycles                  151724                       # Number of cycles IEW is unblocking (Cycle)
system.cpu0.iew.dispatchedInsts              15574717                       # Number of instructions dispatched to IQ (Count)
system.cpu0.iew.dispSquashedInsts                2364                       # Number of squashed instructions skipped by dispatch (Count)
system.cpu0.iew.dispLoadInsts                  893318                       # Number of dispatched load instructions (Count)
system.cpu0.iew.dispStoreInsts                 386889                       # Number of dispatched store instructions (Count)
system.cpu0.iew.dispNonSpecInsts                  749                       # Number of dispatched non-speculative instructions (Count)
system.cpu0.iew.iqFullEvents                     7358                       # Number of times the IQ has become full, causing a stall (Count)
system.cpu0.iew.lsqFullEvents                  139245                       # Number of times the LSQ has become full, causing a stall (Count)
system.cpu0.iew.memOrderViolationEvents          8245                       # Number of memory order violations (Count)
system.cpu0.iew.predictedTakenIncorrect         11564                       # Number of branches that were predicted taken incorrectly (Count)
system.cpu0.iew.predictedNotTakenIncorrect        13853                       # Number of branches that were predicted not taken incorrectly (Count)
system.cpu0.iew.branchMispredicts               25417                       # Number of branch mispredicts detected at execute (Count)
system.cpu0.iew.instsToCommit                14894402                       # Cumulative count of insts sent to commit (Count)
system.cpu0.iew.writebackCount               14880081                       # Cumulative count of insts written-back (Count)
system.cpu0.iew.producerInst                 12879789                       # Number of instructions producing a value (Count)
system.cpu0.iew.consumerInst                 31754464                       # Number of instructions consuming a value (Count)
system.cpu0.iew.wbRate                       1.058469                       # Insts written-back per cycle ((Count/Cycle))
system.cpu0.iew.wbFanout                     0.405606                       # Average fanout of values written-back ((Count/Count))
system.cpu0.interrupts.clk_domain.clock          8000                       # Clock period in ticks (Tick)
system.cpu0.lsq0.forwLoads                      60409                       # Number of loads that had data forwarded from stores (Count)
system.cpu0.lsq0.squashedLoads                 232286                       # Number of loads squashed (Count)
system.cpu0.lsq0.ignoredResponses                 100                       # Number of memory responses ignored because the instruction is squashed (Count)
system.cpu0.lsq0.memOrderViolation               8245                       # Number of memory ordering violations (Count)
system.cpu0.lsq0.squashedStores                111485                       # Number of stores squashed (Count)
system.cpu0.lsq0.rescheduledLoads                 304                       # Number of loads that were rescheduled (Count)
system.cpu0.lsq0.blockedByCache                  2107                       # Number of times an access to memory failed due to the cache being blocked (Count)
system.cpu0.lsq0.loadToUse::samples            660954                       # Distribution of cycle latency between the first time a load is issued and its completion (Unspecified)
system.cpu0.lsq0.loadToUse::mean            52.896462                       # Distribution of cycle latency between the first time a load is issued and its completion (Unspecified)
system.cpu0.lsq0.loadToUse::stdev          201.100757                       # Distribution of cycle latency between the first time a load is issued and its completion (Unspecified)
system.cpu0.lsq0.loadToUse::0-9                615883     93.18%     93.18% # Distribution of cycle latency between the first time a load is issued and its completion (Unspecified)
system.cpu0.lsq0.loadToUse::10-19                 161      0.02%     93.21% # Distribution of cycle latency between the first time a load is issued and its completion (Unspecified)
system.cpu0.lsq0.loadToUse::20-29                  58      0.01%     93.21% # Distribution of cycle latency between the first time a load is issued and its completion (Unspecified)
system.cpu0.lsq0.loadToUse::30-39                  55      0.01%     93.22% # Distribution of cycle latency between the first time a load is issued and its completion (Unspecified)
system.cpu0.lsq0.loadToUse::40-49                  64      0.01%     93.23% # Distribution of cycle latency between the first time a load is issued and its completion (Unspecified)
system.cpu0.lsq0.loadToUse::50-59                 113      0.02%     93.25% # Distribution of cycle latency between the first time a load is issued and its completion (Unspecified)
system.cpu0.lsq0.loadToUse::60-69                  99      0.01%     93.26% # Distribution of cycle latency between the first time a load is issued and its completion (Unspecified)
system.cpu0.lsq0.loadToUse::70-79                  60      0.01%     93.27% # Distribution of cycle latency between the first time a load is issued and its completion (Unspecified)
system.cpu0.lsq0.loadToUse::80-89                  57      0.01%     93.28% # Distribution of cycle latency between the first time a load is issued and its completion (Unspecified)
system.cpu0.lsq0.loadToUse::90-99                  72      0.01%     93.29% # Distribution of cycle latency between the first time a load is issued and its completion (Unspecified)
system.cpu0.lsq0.loadToUse::100-109                36      0.01%     93.30% # Distribution of cycle latency between the first time a load is issued and its completion (Unspecified)
system.cpu0.lsq0.loadToUse::110-119                68      0.01%     93.31% # Distribution of cycle latency between the first time a load is issued and its completion (Unspecified)
system.cpu0.lsq0.loadToUse::120-129                55      0.01%     93.32% # Distribution of cycle latency between the first time a load is issued and its completion (Unspecified)
system.cpu0.lsq0.loadToUse::130-139                56      0.01%     93.33% # Distribution of cycle latency between the first time a load is issued and its completion (Unspecified)
system.cpu0.lsq0.loadToUse::140-149                47      0.01%     93.33% # Distribution of cycle latency between the first time a load is issued and its completion (Unspecified)
system.cpu0.lsq0.loadToUse::150-159                59      0.01%     93.34% # Distribution of cycle latency between the first time a load is issued and its completion (Unspecified)
system.cpu0.lsq0.loadToUse::160-169                77      0.01%     93.35% # Distribution of cycle latency between the first time a load is issued and its completion (Unspecified)
system.cpu0.lsq0.loadToUse::170-179               143      0.02%     93.37% # Distribution of cycle latency between the first time a load is issued and its completion (Unspecified)
system.cpu0.lsq0.loadToUse::180-189               583      0.09%     93.46% # Distribution of cycle latency between the first time a load is issued and its completion (Unspecified)
system.cpu0.lsq0.loadToUse::190-199                33      0.00%     93.47% # Distribution of cycle latency between the first time a load is issued and its completion (Unspecified)
system.cpu0.lsq0.loadToUse::200-209                39      0.01%     93.47% # Distribution of cycle latency between the first time a load is issued and its completion (Unspecified)
system.cpu0.lsq0.loadToUse::210-219                55      0.01%     93.48% # Distribution of cycle latency between the first time a load is issued and its completion (Unspecified)
system.cpu0.lsq0.loadToUse::220-229                84      0.01%     93.49% # Distribution of cycle latency between the first time a load is issued and its completion (Unspecified)
system.cpu0.lsq0.loadToUse::230-239               105      0.02%     93.51% # Distribution of cycle latency between the first time a load is issued and its completion (Unspecified)
system.cpu0.lsq0.loadToUse::240-249               518      0.08%     93.59% # Distribution of cycle latency between the first time a load is issued and its completion (Unspecified)
system.cpu0.lsq0.loadToUse::250-259                35      0.01%     93.59% # Distribution of cycle latency between the first time a load is issued and its completion (Unspecified)
system.cpu0.lsq0.loadToUse::260-269                48      0.01%     93.60% # Distribution of cycle latency between the first time a load is issued and its completion (Unspecified)
system.cpu0.lsq0.loadToUse::270-279                54      0.01%     93.61% # Distribution of cycle latency between the first time a load is issued and its completion (Unspecified)
system.cpu0.lsq0.loadToUse::280-289                91      0.01%     93.62% # Distribution of cycle latency between the first time a load is issued and its completion (Unspecified)
system.cpu0.lsq0.loadToUse::290-299               140      0.02%     93.64% # Distribution of cycle latency between the first time a load is issued and its completion (Unspecified)
system.cpu0.lsq0.loadToUse::overflows           42006      6.36%    100.00% # Distribution of cycle latency between the first time a load is issued and its completion (Unspecified)
system.cpu0.lsq0.loadToUse::min_value               2                       # Distribution of cycle latency between the first time a load is issued and its completion (Unspecified)
system.cpu0.lsq0.loadToUse::max_value            2482                       # Distribution of cycle latency between the first time a load is issued and its completion (Unspecified)
system.cpu0.lsq0.loadToUse::total              660954                       # Distribution of cycle latency between the first time a load is issued and its completion (Unspecified)
system.cpu0.mmu.dtb.rdAccesses                 785228                       # TLB accesses on read requests (Count)
system.cpu0.mmu.dtb.wrAccesses                 312395                       # TLB accesses on write requests (Count)
system.cpu0.mmu.dtb.rdMisses                     3206                       # TLB misses on read requests (Count)
system.cpu0.mmu.dtb.wrMisses                      413                       # TLB misses on write requests (Count)
system.cpu0.mmu.dtb.walker.power_state.pwrStateResidencyTicks::UNDEFINED   7029059000                       # Cumulative time (in ticks) in various power states (Tick)
system.cpu0.mmu.itb.rdAccesses                      0                       # TLB accesses on read requests (Count)
system.cpu0.mmu.itb.wrAccesses                1179935                       # TLB accesses on write requests (Count)
system.cpu0.mmu.itb.rdMisses                        0                       # TLB misses on read requests (Count)
system.cpu0.mmu.itb.wrMisses                     2983                       # TLB misses on write requests (Count)
system.cpu0.mmu.itb.walker.power_state.pwrStateResidencyTicks::UNDEFINED   7029059000                       # Cumulative time (in ticks) in various power states (Tick)
system.cpu0.power_state.pwrStateResidencyTicks::ON   7029059000                       # Cumulative time (in ticks) in various power states (Tick)
system.cpu0.rename.squashCycles                 31982                       # Number of cycles rename is squashing (Cycle)
system.cpu0.rename.idleCycles                 1332100                       # Number of cycles rename is idle (Cycle)
system.cpu0.rename.blockCycles                7143203                       # Number of cycles rename is blocking (Cycle)
system.cpu0.rename.serializeStallCycles         22105                       # count of cycles rename stalled for serializing inst (Cycle)
system.cpu0.rename.runCycles                  1651656                       # Number of cycles rename is running (Cycle)
system.cpu0.rename.unblockCycles              2745662                       # Number of cycles rename is unblocking (Cycle)
system.cpu0.rename.renamedInsts              15787549                       # Number of instructions processed by rename (Count)
system.cpu0.rename.ROBFullEvents               127397                       # Number of times rename has blocked due to ROB full (Count)
system.cpu0.rename.IQFullEvents               1649077                       # Number of times rename has blocked due to IQ full (Count)
system.cpu0.rename.LQFullEvents                167679                       # Number of times rename has blocked due to LQ full (Count)
system.cpu0.rename.SQFullEvents                537102                       # Number of times rename has blocked due to SQ full (Count)
system.cpu0.rename.fullRegistersEvents           3823                       # Number of times there has been no free registers (Count)
system.cpu0.rename.renamedOperands           35868263                       # Number of destination operands rename has renamed (Count)
system.cpu0.rename.lookups                   69611241                       # Number of register rename lookups that rename has made (Count)
system.cpu0.rename.intLookups                27726371                       # Number of integer rename lookups (Count)
system.cpu0.rename.fpLookups                   188821                       # Number of floating rename lookups (Count)
system.cpu0.rename.committedMaps             32724245                       # Number of HB maps that are committed (Count)
system.cpu0.rename.undoneMaps                 3143767                       # Number of HB maps that are undone due to squashing (Count)
system.cpu0.rename.serializing                    757                       # count of serializing insts renamed (Count)
system.cpu0.rename.tempSerializing                742                       # count of temporary serializing insts renamed (Count)
system.cpu0.rename.skidInsts                  5498298                       # count of insts added to the skid buffer (Count)
system.cpu0.rob.reads                        27542238                       # The number of ROB reads (Count)
system.cpu0.rob.writes                       31341284                       # The number of ROB writes (Count)
system.cpu0.thread_0.numInsts                 8883232                       # Number of Instructions committed (Count)
system.cpu0.thread_0.numOps                  14090053                       # Number of Ops committed (Count)
system.cpu0.thread_0.numMemRefs                     0                       # Number of Memory References (Count)
system.cpu0.workload.numSyscalls                   62                       # Number of system calls (Count)
system.cpu1.numCycles                        14058119                       # Number of cpu cycles simulated (Cycle)
system.cpu1.numWorkItemsStarted                     0                       # Number of work items this cpu started (Count)
system.cpu1.numWorkItemsCompleted                   0                       # Number of work items this cpu completed (Count)
system.cpu1.instsAdded                       16569753                       # Number of instructions added to the IQ (excludes non-spec) (Count)
system.cpu1.nonSpecInstsAdded                     881                       # Number of non-speculative instructions added to the IQ (Count)
system.cpu1.instsIssued                      15942297                       # Number of instructions issued (Count)
system.cpu1.squashedInstsIssued                  2817                       # Number of squashed instructions issued (Count)
system.cpu1.squashedInstsExamined             1522787                       # Number of squashed instructions iterated over during squash; mainly for profiling (Count)
system.cpu1.squashedOperandsExamined          3205488                       # Number of squashed operands that are examined and possibly removed from graph (Count)
system.cpu1.squashedNonSpecRemoved                148                       # Number of squashed non-spec instructions that were removed (Count)
system.cpu1.numIssuedDist::samples           12993376                       # Number of insts issued each cycle (Count)
system.cpu1.numIssuedDist::mean              1.226956                       # Number of insts issued each cycle (Count)
system.cpu1.numIssuedDist::stdev             1.759704                       # Number of insts issued each cycle (Count)
system.cpu1.numIssuedDist::underflows               0      0.00%      0.00% # Number of insts issued each cycle (Count)
system.cpu1.numIssuedDist::0                  7865825     60.54%     60.54% # Number of insts issued each cycle (Count)
system.cpu1.numIssuedDist::1                   488456      3.76%     64.30% # Number of insts issued each cycle (Count)
system.cpu1.numIssuedDist::2                  1414095     10.88%     75.18% # Number of insts issued each cycle (Count)
system.cpu1.numIssuedDist::3                  1553358     11.95%     87.13% # Number of insts issued each cycle (Count)
system.cpu1.numIssuedDist::4                   886235      6.82%     93.96% # Number of insts issued each cycle (Count)
system.cpu1.numIssuedDist::5                   462348      3.56%     97.51% # Number of insts issued each cycle (Count)
system.cpu1.numIssuedDist::6                   194776      1.50%     99.01% # Number of insts issued each cycle (Count)
system.cpu1.numIssuedDist::7                    86023      0.66%     99.67% # Number of insts issued each cycle (Count)
system.cpu1.numIssuedDist::8                    42260      0.33%    100.00% # Number of insts issued each cycle (Count)
system.cpu1.numIssuedDist::overflows                0      0.00%    100.00% # Number of insts issued each cycle (Count)
system.cpu1.numIssuedDist::min_value                0                       # Number of insts issued each cycle (Count)
system.cpu1.numIssuedDist::max_value                8                       # Number of insts issued each cycle (Count)
system.cpu1.numIssuedDist::total             12993376                       # Number of insts issued each cycle (Count)
system.cpu1.statFuBusy::No_OpClass                  0      0.00%      0.00% # attempts to use FU when none available (Count)
system.cpu1.statFuBusy::IntAlu                  56988     72.28%     72.28% # attempts to use FU when none available (Count)
system.cpu1.statFuBusy::IntMult                     0      0.00%     72.28% # attempts to use FU when none available (Count)
system.cpu1.statFuBusy::IntDiv                      0      0.00%     72.28% # attempts to use FU when none available (Count)
system.cpu1.statFuBusy::FloatAdd                    0      0.00%     72.28% # attempts to use FU when none available (Count)
system.cpu1.statFuBusy::FloatCmp                    0      0.00%     72.28% # attempts to use FU when none available (Count)
system.cpu1.statFuBusy::FloatCvt                    0      0.00%     72.28% # attempts to use FU when none available (Count)
system.cpu1.statFuBusy::FloatMult                   0      0.00%     72.28% # attempts to use FU when none available (Count)
system.cpu1.statFuBusy::FloatMultAcc                0      0.00%     72.28% # attempts to use FU when none available (Count)
system.cpu1.statFuBusy::FloatDiv                    0      0.00%     72.28% # attempts to use FU when none available (Count)
system.cpu1.statFuBusy::FloatMisc                   0      0.00%     72.28% # attempts to use FU when none available (Count)
system.cpu1.statFuBusy::FloatSqrt                   0      0.00%     72.28% # attempts to use FU when none available (Count)
system.cpu1.statFuBusy::SimdAdd                     0      0.00%     72.28% # attempts to use FU when none available (Count)
system.cpu1.statFuBusy::SimdAddAcc                  0      0.00%     72.28% # attempts to use FU when none available (Count)
system.cpu1.statFuBusy::SimdAlu                   122      0.15%     72.43% # attempts to use FU when none available (Count)
system.cpu1.statFuBusy::SimdCmp                     0      0.00%     72.43% # attempts to use FU when none available (Count)
system.cpu1.statFuBusy::SimdCvt                   168      0.21%     72.65% # attempts to use FU when none available (Count)
system.cpu1.statFuBusy::SimdMisc                    0      0.00%     72.65% # attempts to use FU when none available (Count)
system.cpu1.statFuBusy::SimdMult                    0      0.00%     72.65% # attempts to use FU when none available (Count)
system.cpu1.statFuBusy::SimdMultAcc                 0      0.00%     72.65% # attempts to use FU when none available (Count)
system.cpu1.statFuBusy::SimdShift                 207      0.26%     72.91% # attempts to use FU when none available (Count)
system.cpu1.statFuBusy::SimdShiftAcc                0      0.00%     72.91% # attempts to use FU when none available (Count)
system.cpu1.statFuBusy::SimdDiv                     0      0.00%     72.91% # attempts to use FU when none available (Count)
system.cpu1.statFuBusy::SimdSqrt                    0      0.00%     72.91% # attempts to use FU when none available (Count)
system.cpu1.statFuBusy::SimdFloatAdd                0      0.00%     72.91% # attempts to use FU when none available (Count)
system.cpu1.statFuBusy::SimdFloatAlu                0      0.00%     72.91% # attempts to use FU when none available (Count)
system.cpu1.statFuBusy::SimdFloatCmp                0      0.00%     72.91% # attempts to use FU when none available (Count)
system.cpu1.statFuBusy::SimdFloatCvt                0      0.00%     72.91% # attempts to use FU when none available (Count)
system.cpu1.statFuBusy::SimdFloatDiv                0      0.00%     72.91% # attempts to use FU when none available (Count)
system.cpu1.statFuBusy::SimdFloatMisc               0      0.00%     72.91% # attempts to use FU when none available (Count)
system.cpu1.statFuBusy::SimdFloatMult               0      0.00%     72.91% # attempts to use FU when none available (Count)
system.cpu1.statFuBusy::SimdFloatMultAcc            0      0.00%     72.91% # attempts to use FU when none available (Count)
system.cpu1.statFuBusy::SimdFloatSqrt               0      0.00%     72.91% # attempts to use FU when none available (Count)
system.cpu1.statFuBusy::SimdReduceAdd               0      0.00%     72.91% # attempts to use FU when none available (Count)
system.cpu1.statFuBusy::SimdReduceAlu               0      0.00%     72.91% # attempts to use FU when none available (Count)
system.cpu1.statFuBusy::SimdReduceCmp               0      0.00%     72.91% # attempts to use FU when none available (Count)
system.cpu1.statFuBusy::SimdFloatReduceAdd            0      0.00%     72.91% # attempts to use FU when none available (Count)
system.cpu1.statFuBusy::SimdFloatReduceCmp            0      0.00%     72.91% # attempts to use FU when none available (Count)
system.cpu1.statFuBusy::SimdAes                     0      0.00%     72.91% # attempts to use FU when none available (Count)
system.cpu1.statFuBusy::SimdAesMix                  0      0.00%     72.91% # attempts to use FU when none available (Count)
system.cpu1.statFuBusy::SimdSha1Hash                0      0.00%     72.91% # attempts to use FU when none available (Count)
system.cpu1.statFuBusy::SimdSha1Hash2               0      0.00%     72.91% # attempts to use FU when none available (Count)
system.cpu1.statFuBusy::SimdSha256Hash              0      0.00%     72.91% # attempts to use FU when none available (Count)
system.cpu1.statFuBusy::SimdSha256Hash2             0      0.00%     72.91% # attempts to use FU when none available (Count)
system.cpu1.statFuBusy::SimdShaSigma2               0      0.00%     72.91% # attempts to use FU when none available (Count)
system.cpu1.statFuBusy::SimdShaSigma3               0      0.00%     72.91% # attempts to use FU when none available (Count)
system.cpu1.statFuBusy::SimdPredAlu                 0      0.00%     72.91% # attempts to use FU when none available (Count)
system.cpu1.statFuBusy::MemRead                 11895     15.09%     88.00% # attempts to use FU when none available (Count)
system.cpu1.statFuBusy::MemWrite                 7668      9.73%     97.72% # attempts to use FU when none available (Count)
system.cpu1.statFuBusy::FloatMemRead             1334      1.69%     99.41% # attempts to use FU when none available (Count)
system.cpu1.statFuBusy::FloatMemWrite             462      0.59%    100.00% # attempts to use FU when none available (Count)
system.cpu1.statFuBusy::IprAccess                   0      0.00%    100.00% # attempts to use FU when none available (Count)
system.cpu1.statFuBusy::InstPrefetch                0      0.00%    100.00% # attempts to use FU when none available (Count)
system.cpu1.statIssuedInstType_0::No_OpClass        79020      0.50%      0.50% # Number of instructions issued per FU type, per thread (Count)
system.cpu1.statIssuedInstType_0::IntAlu     14619404     91.70%     92.20% # Number of instructions issued per FU type, per thread (Count)
system.cpu1.statIssuedInstType_0::IntMult           37      0.00%     92.20% # Number of instructions issued per FU type, per thread (Count)
system.cpu1.statIssuedInstType_0::IntDiv        38434      0.24%     92.44% # Number of instructions issued per FU type, per thread (Count)
system.cpu1.statIssuedInstType_0::FloatAdd         4215      0.03%     92.47% # Number of instructions issued per FU type, per thread (Count)
system.cpu1.statIssuedInstType_0::FloatCmp            0      0.00%     92.47% # Number of instructions issued per FU type, per thread (Count)
system.cpu1.statIssuedInstType_0::FloatCvt         1452      0.01%     92.47% # Number of instructions issued per FU type, per thread (Count)
system.cpu1.statIssuedInstType_0::FloatMult            0      0.00%     92.47% # Number of instructions issued per FU type, per thread (Count)
system.cpu1.statIssuedInstType_0::FloatMultAcc            0      0.00%     92.47% # Number of instructions issued per FU type, per thread (Count)
system.cpu1.statIssuedInstType_0::FloatDiv            0      0.00%     92.47% # Number of instructions issued per FU type, per thread (Count)
system.cpu1.statIssuedInstType_0::FloatMisc            0      0.00%     92.47% # Number of instructions issued per FU type, per thread (Count)
system.cpu1.statIssuedInstType_0::FloatSqrt            0      0.00%     92.47% # Number of instructions issued per FU type, per thread (Count)
system.cpu1.statIssuedInstType_0::SimdAdd         8399      0.05%     92.53% # Number of instructions issued per FU type, per thread (Count)
system.cpu1.statIssuedInstType_0::SimdAddAcc            0      0.00%     92.53% # Number of instructions issued per FU type, per thread (Count)
system.cpu1.statIssuedInstType_0::SimdAlu        17052      0.11%     92.63% # Number of instructions issued per FU type, per thread (Count)
system.cpu1.statIssuedInstType_0::SimdCmp            0      0.00%     92.63% # Number of instructions issued per FU type, per thread (Count)
system.cpu1.statIssuedInstType_0::SimdCvt        18629      0.12%     92.75% # Number of instructions issued per FU type, per thread (Count)
system.cpu1.statIssuedInstType_0::SimdMisc         8820      0.06%     92.81% # Number of instructions issued per FU type, per thread (Count)
system.cpu1.statIssuedInstType_0::SimdMult            0      0.00%     92.81% # Number of instructions issued per FU type, per thread (Count)
system.cpu1.statIssuedInstType_0::SimdMultAcc            0      0.00%     92.81% # Number of instructions issued per FU type, per thread (Count)
system.cpu1.statIssuedInstType_0::SimdShift         2905      0.02%     92.82% # Number of instructions issued per FU type, per thread (Count)
system.cpu1.statIssuedInstType_0::SimdShiftAcc            0      0.00%     92.82% # Number of instructions issued per FU type, per thread (Count)
system.cpu1.statIssuedInstType_0::SimdDiv            0      0.00%     92.82% # Number of instructions issued per FU type, per thread (Count)
system.cpu1.statIssuedInstType_0::SimdSqrt            0      0.00%     92.82% # Number of instructions issued per FU type, per thread (Count)
system.cpu1.statIssuedInstType_0::SimdFloatAdd            0      0.00%     92.82% # Number of instructions issued per FU type, per thread (Count)
system.cpu1.statIssuedInstType_0::SimdFloatAlu            0      0.00%     92.82% # Number of instructions issued per FU type, per thread (Count)
system.cpu1.statIssuedInstType_0::SimdFloatCmp            0      0.00%     92.82% # Number of instructions issued per FU type, per thread (Count)
system.cpu1.statIssuedInstType_0::SimdFloatCvt            0      0.00%     92.82% # Number of instructions issued per FU type, per thread (Count)
system.cpu1.statIssuedInstType_0::SimdFloatDiv            0      0.00%     92.82% # Number of instructions issued per FU type, per thread (Count)
system.cpu1.statIssuedInstType_0::SimdFloatMisc            0      0.00%     92.82% # Number of instructions issued per FU type, per thread (Count)
system.cpu1.statIssuedInstType_0::SimdFloatMult            0      0.00%     92.82% # Number of instructions issued per FU type, per thread (Count)
system.cpu1.statIssuedInstType_0::SimdFloatMultAcc            0      0.00%     92.82% # Number of instructions issued per FU type, per thread (Count)
system.cpu1.statIssuedInstType_0::SimdFloatSqrt            0      0.00%     92.82% # Number of instructions issued per FU type, per thread (Count)
system.cpu1.statIssuedInstType_0::SimdReduceAdd            0      0.00%     92.82% # Number of instructions issued per FU type, per thread (Count)
system.cpu1.statIssuedInstType_0::SimdReduceAlu            0      0.00%     92.82% # Number of instructions issued per FU type, per thread (Count)
system.cpu1.statIssuedInstType_0::SimdReduceCmp            0      0.00%     92.82% # Number of instructions issued per FU type, per thread (Count)
system.cpu1.statIssuedInstType_0::SimdFloatReduceAdd            0      0.00%     92.82% # Number of instructions issued per FU type, per thread (Count)
system.cpu1.statIssuedInstType_0::SimdFloatReduceCmp            0      0.00%     92.82% # Number of instructions issued per FU type, per thread (Count)
system.cpu1.statIssuedInstType_0::SimdAes            0      0.00%     92.82% # Number of instructions issued per FU type, per thread (Count)
system.cpu1.statIssuedInstType_0::SimdAesMix            0      0.00%     92.82% # Number of instructions issued per FU type, per thread (Count)
system.cpu1.statIssuedInstType_0::SimdSha1Hash            0      0.00%     92.82% # Number of instructions issued per FU type, per thread (Count)
system.cpu1.statIssuedInstType_0::SimdSha1Hash2            0      0.00%     92.82% # Number of instructions issued per FU type, per thread (Count)
system.cpu1.statIssuedInstType_0::SimdSha256Hash            0      0.00%     92.82% # Number of instructions issued per FU type, per thread (Count)
system.cpu1.statIssuedInstType_0::SimdSha256Hash2            0      0.00%     92.82% # Number of instructions issued per FU type, per thread (Count)
system.cpu1.statIssuedInstType_0::SimdShaSigma2            0      0.00%     92.82% # Number of instructions issued per FU type, per thread (Count)
system.cpu1.statIssuedInstType_0::SimdShaSigma3            0      0.00%     92.82% # Number of instructions issued per FU type, per thread (Count)
system.cpu1.statIssuedInstType_0::SimdPredAlu            0      0.00%     92.82% # Number of instructions issued per FU type, per thread (Count)
system.cpu1.statIssuedInstType_0::MemRead       783288      4.91%     97.74% # Number of instructions issued per FU type, per thread (Count)
system.cpu1.statIssuedInstType_0::MemWrite       308684      1.94%     99.67% # Number of instructions issued per FU type, per thread (Count)
system.cpu1.statIssuedInstType_0::FloatMemRead        33805      0.21%     99.89% # Number of instructions issued per FU type, per thread (Count)
system.cpu1.statIssuedInstType_0::FloatMemWrite        18153      0.11%    100.00% # Number of instructions issued per FU type, per thread (Count)
system.cpu1.statIssuedInstType_0::IprAccess            0      0.00%    100.00% # Number of instructions issued per FU type, per thread (Count)
system.cpu1.statIssuedInstType_0::InstPrefetch            0      0.00%    100.00% # Number of instructions issued per FU type, per thread (Count)
system.cpu1.statIssuedInstType_0::total      15942297                       # Number of instructions issued per FU type, per thread (Count)
system.cpu1.issueRate                        1.134028                       # Inst issue rate ((Count/Cycle))
system.cpu1.fuBusy                              78844                       # FU busy when requested (Count)
system.cpu1.fuBusyRate                       0.004946                       # FU busy rate (busy events/executed inst) ((Count/Count))
system.cpu1.intInstQueueReads                44727919                       # Number of integer instruction queue reads (Count)
system.cpu1.intInstQueueWrites               17925734                       # Number of integer instruction queue writes (Count)
system.cpu1.intInstQueueWakeupAccesses       15739825                       # Number of integer instruction queue wakeup accesses (Count)
system.cpu1.fpInstQueueReads                   231710                       # Number of floating instruction queue reads (Count)
system.cpu1.fpInstQueueWrites                  176662                       # Number of floating instruction queue writes (Count)
system.cpu1.fpInstQueueWakeupAccesses          110658                       # Number of floating instruction queue wakeup accesses (Count)
system.cpu1.vecInstQueueReads                       0                       # Number of vector instruction queue reads (Count)
system.cpu1.vecInstQueueWrites                      0                       # Number of vector instruction queue writes (Count)
system.cpu1.vecInstQueueWakeupAccesses              0                       # Number of vector instruction queue wakeup accesses (Count)
system.cpu1.intAluAccesses                   15825264                       # Number of integer alu accesses (Count)
system.cpu1.fpAluAccesses                      116857                       # Number of floating point alu accesses (Count)
system.cpu1.vecAluAccesses                          0                       # Number of vector alu accesses (Count)
system.cpu1.numInsts                         15886130                       # Number of executed instructions (Count)
system.cpu1.numLoadInsts                       806076                       # Number of load instructions executed (Count)
system.cpu1.numSquashedInsts                    56165                       # Number of squashed instructions skipped in execute (Count)
system.cpu1.numSwp                                  0                       # Number of swp insts executed (Count)
system.cpu1.numNop                                  0                       # Number of nop insts executed (Count)
system.cpu1.numRefs                           1128455                       # Number of memory reference insts executed (Count)
system.cpu1.numBranches                        977252                       # Number of branches executed (Count)
[...]
system.ruby.network.ext_out_link_utilization      4135683                       (Unspecified)
system.ruby.network.flit_network_latency |103379909000                       |205283902000                       | 28539628500                       (Unspecified)
system.ruby.network.flit_queueing_latency |  2080214500                       |  1902904000                       |   146537500                       (Unspecified)
system.ruby.network.flits_injected       |      980210     23.70%     23.70% |     2862398     69.21%     92.91% |      293075      7.09%    100.00% (Unspecified)
system.ruby.network.flits_injected::total      4135683                       (Unspecified)
system.ruby.network.flits_received       |      980210     23.70%     23.70% |     2862398     69.21%     92.91% |      293075      7.09%    100.00% (Unspecified)
system.ruby.network.flits_received::total      4135683                       (Unspecified)
system.ruby.network.int_link_utilization     12517124                       (Unspecified)
system.ruby.network.packet_network_latency | 77702349500                       | 67957254000                       | 28539628500                       (Unspecified)
system.ruby.network.packet_queueing_latency |  1707642500                       |   507358000                       |   146537500                       (Unspecified)
system.ruby.network.packets_injected     |      800418     42.26%     42.26% |      800418     42.26%     84.53% |      293075     15.47%    100.00% (Unspecified)
system.ruby.network.packets_injected::total      1893911                       (Unspecified)
system.ruby.network.packets_received     |      800418     42.26%     42.26% |      800418     42.26%     84.53% |      293075     15.47%    100.00% (Unspecified)
system.ruby.network.packets_received::total      1893911                       (Unspecified)
system.ruby.network.routers00.Var_1                 0                       (Unspecified)
system.ruby.network.routers00.Var_2                 0                       (Unspecified)
system.ruby.network.routers00.Var_3                 0                       (Unspecified)
system.ruby.network.routers00.all_counts            0                       (Unspecified)
system.ruby.network.routers00.buffer_reads       740534                       (Unspecified)
system.ruby.network.routers00.buffer_writes       740534                       (Unspecified)
system.ruby.network.routers00.crossbar_activity       740534                       (Unspecified)
system.ruby.network.routers00.detour_counts        52775                       (Unspecified)
system.ruby.network.routers00.regular_var            0                       (Unspecified)
system.ruby.network.routers00.risk_counts            0                       (Unspecified)
system.ruby.network.routers00.sw_input_arbiter_activity       746053                       (Unspecified)
system.ruby.network.routers00.sw_output_arbiter_activity       740534                       (Unspecified)
system.ruby.network.routers01.Var_1                 0                       (Unspecified)
system.ruby.network.routers01.Var_2                 0                       (Unspecified)
system.ruby.network.routers01.Var_3                 0                       (Unspecified)
system.ruby.network.routers01.all_counts            0                       (Unspecified)
system.ruby.network.routers01.buffer_reads      1061583                       (Unspecified)
system.ruby.network.routers01.buffer_writes      1061583                       (Unspecified)
system.ruby.network.routers01.crossbar_activity      1061583                       (Unspecified)
system.ruby.network.routers01.detour_counts        52930                       (Unspecified)
system.ruby.network.routers01.regular_var            0                       (Unspecified)
system.ruby.network.routers01.risk_counts            0                       (Unspecified)
system.ruby.network.routers01.sw_input_arbiter_activity      1073696                       (Unspecified)
system.ruby.network.routers01.sw_output_arbiter_activity      1061583                       (Unspecified)
system.ruby.network.routers02.Var_1                 0                       (Unspecified)
system.ruby.network.routers02.Var_2                 0                       (Unspecified)
system.ruby.network.routers02.Var_3                 0                       (Unspecified)
system.ruby.network.routers02.all_counts            0                       (Unspecified)
system.ruby.network.routers02.buffer_reads      1064041                       (Unspecified)
system.ruby.network.routers02.buffer_writes      1064041                       (Unspecified)
system.ruby.network.routers02.crossbar_activity      1064041                       (Unspecified)
system.ruby.network.routers02.detour_counts        52828                       (Unspecified)
system.ruby.network.routers02.regular_var            0                       (Unspecified)
system.ruby.network.routers02.risk_counts            0                       (Unspecified)
system.ruby.network.routers02.sw_input_arbiter_activity      1075869                       (Unspecified)
system.ruby.network.routers02.sw_output_arbiter_activity      1064041                       (Unspecified)
system.ruby.network.routers03.Var_1                 0                       (Unspecified)
system.ruby.network.routers03.Var_2                 0                       (Unspecified)
system.ruby.network.routers03.Var_3                 0                       (Unspecified)
system.ruby.network.routers03.all_counts            0                       (Unspecified)
system.ruby.network.routers03.buffer_reads       731110                       (Unspecified)
system.ruby.network.routers03.buffer_writes       731110                       (Unspecified)
system.ruby.network.routers03.crossbar_activity       731110                       (Unspecified)
system.ruby.network.routers03.detour_counts        52888                       (Unspecified)
system.ruby.network.routers03.regular_var            0                       (Unspecified)
system.ruby.network.routers03.risk_counts            0                       (Unspecified)
system.ruby.network.routers03.sw_input_arbiter_activity       736311                       (Unspecified)
system.ruby.network.routers03.sw_output_arbiter_activity       731110                       (Unspecified)
system.ruby.network.routers04.Var_1                 0                       (Unspecified)
system.ruby.network.routers04.Var_2                 0                       (Unspecified)
system.ruby.network.routers04.Var_3                 0                       (Unspecified)
system.ruby.network.routers04.all_counts            0                       (Unspecified)
system.ruby.network.routers04.buffer_reads      1033046                       (Unspecified)
system.ruby.network.routers04.buffer_writes      1033046                       (Unspecified)
system.ruby.network.routers04.crossbar_activity      1033046                       (Unspecified)
system.ruby.network.routers04.detour_counts        52896                       (Unspecified)
system.ruby.network.routers04.regular_var            0                       (Unspecified)
system.ruby.network.routers04.risk_counts            0                       (Unspecified)
system.ruby.network.routers04.sw_input_arbiter_activity      1044132                       (Unspecified)
system.ruby.network.routers04.sw_output_arbiter_activity      1033046                       (Unspecified)
system.ruby.network.routers05.Var_1                 0                       (Unspecified)
system.ruby.network.routers05.Var_2                 0                       (Unspecified)
system.ruby.network.routers05.Var_3                 0                       (Unspecified)
system.ruby.network.routers05.all_counts            0                       (Unspecified)
system.ruby.network.routers05.buffer_reads      1353156                       (Unspecified)
system.ruby.network.routers05.buffer_writes      1353156                       (Unspecified)
system.ruby.network.routers05.crossbar_activity      1353156                       (Unspecified)
system.ruby.network.routers05.detour_counts        52905                       (Unspecified)
system.ruby.network.routers05.regular_var            0                       (Unspecified)
system.ruby.network.routers05.risk_counts            0                       (Unspecified)
system.ruby.network.routers05.sw_input_arbiter_activity      1370790                       (Unspecified)
system.ruby.network.routers05.sw_output_arbiter_activity      1353156                       (Unspecified)
system.ruby.network.routers06.Var_1                 0                       (Unspecified)
system.ruby.network.routers06.Var_2                 0                       (Unspecified)
system.ruby.network.routers06.Var_3                 0                       (Unspecified)
system.ruby.network.routers06.all_counts            0                       (Unspecified)
system.ruby.network.routers06.buffer_reads      1351648                       (Unspecified)
system.ruby.network.routers06.buffer_writes      1351648                       (Unspecified)
system.ruby.network.routers06.crossbar_activity      1351648                       (Unspecified)
system.ruby.network.routers06.detour_counts        52901                       (Unspecified)
system.ruby.network.routers06.regular_var            0                       (Unspecified)
system.ruby.network.routers06.risk_counts            0                       (Unspecified)
system.ruby.network.routers06.sw_input_arbiter_activity      1369422                       (Unspecified)
system.ruby.network.routers06.sw_output_arbiter_activity      1351648                       (Unspecified)
system.ruby.network.routers07.Var_1                 0                       (Unspecified)
system.ruby.network.routers07.Var_2                 0                       (Unspecified)
system.ruby.network.routers07.Var_3                 0                       (Unspecified)
system.ruby.network.routers07.all_counts            0                       (Unspecified)
system.ruby.network.routers07.buffer_reads      1021389                       (Unspecified)
system.ruby.network.routers07.buffer_writes      1021389                       (Unspecified)
system.ruby.network.routers07.crossbar_activity      1021389                       (Unspecified)
system.ruby.network.routers07.detour_counts        52995                       (Unspecified)
system.ruby.network.routers07.regular_var            0                       (Unspecified)
system.ruby.network.routers07.risk_counts            0                       (Unspecified)
system.ruby.network.routers07.sw_input_arbiter_activity      1032554                       (Unspecified)
system.ruby.network.routers07.sw_output_arbiter_activity      1021389                       (Unspecified)
system.ruby.network.routers08.Var_1                 0                       (Unspecified)
system.ruby.network.routers08.Var_2                 0                       (Unspecified)
system.ruby.network.routers08.Var_3                 0                       (Unspecified)
system.ruby.network.routers08.all_counts            0                       (Unspecified)
system.ruby.network.routers08.buffer_reads      1029564                       (Unspecified)
system.ruby.network.routers08.buffer_writes      1029564                       (Unspecified)
system.ruby.network.routers08.crossbar_activity      1029564                       (Unspecified)
system.ruby.network.routers08.detour_counts        52921                       (Unspecified)
system.ruby.network.routers08.regular_var            0                       (Unspecified)
system.ruby.network.routers08.risk_counts            0                       (Unspecified)
system.ruby.network.routers08.sw_input_arbiter_activity      1040556                       (Unspecified)
system.ruby.network.routers08.sw_output_arbiter_activity      1029564                       (Unspecified)
system.ruby.network.routers09.Var_1                 0                       (Unspecified)
system.ruby.network.routers09.Var_2                 0                       (Unspecified)
system.ruby.network.routers09.Var_3                 0                       (Unspecified)
system.ruby.network.routers09.all_counts            0                       (Unspecified)
system.ruby.network.routers09.buffer_reads      1353523                       (Unspecified)
system.ruby.network.routers09.buffer_writes      1353523                       (Unspecified)
system.ruby.network.routers09.crossbar_activity      1353523                       (Unspecified)
system.ruby.network.routers09.detour_counts        52735                       (Unspecified)
system.ruby.network.routers09.regular_var            0                       (Unspecified)
system.ruby.network.routers09.risk_counts            0                       (Unspecified)
system.ruby.network.routers09.sw_input_arbiter_activity      1371167                       (Unspecified)
system.ruby.network.routers09.sw_output_arbiter_activity      1353523                       (Unspecified)
system.ruby.network.routers10.Var_1                 0                       (Unspecified)
system.ruby.network.routers10.Var_2                 0                       (Unspecified)
system.ruby.network.routers10.Var_3                 0                       (Unspecified)
system.ruby.network.routers10.all_counts            0                       (Unspecified)
system.ruby.network.routers10.buffer_reads      1348656                       (Unspecified)
system.ruby.network.routers10.buffer_writes      1348656                       (Unspecified)
system.ruby.network.routers10.crossbar_activity      1348656                       (Unspecified)
system.ruby.network.routers10.detour_counts        52831                       (Unspecified)
system.ruby.network.routers10.regular_var            0                       (Unspecified)
system.ruby.network.routers10.risk_counts            0                       (Unspecified)
system.ruby.network.routers10.sw_input_arbiter_activity      1366399                       (Unspecified)
system.ruby.network.routers10.sw_output_arbiter_activity      1348656                       (Unspecified)
system.ruby.network.routers11.Var_1                 0                       (Unspecified)
system.ruby.network.routers11.Var_2                 0                       (Unspecified)
system.ruby.network.routers11.Var_3                 0                       (Unspecified)
system.ruby.network.routers11.all_counts            0                       (Unspecified)
system.ruby.network.routers11.buffer_reads      1016990                       (Unspecified)
system.ruby.network.routers11.buffer_writes      1016990                       (Unspecified)
system.ruby.network.routers11.crossbar_activity      1016990                       (Unspecified)
system.ruby.network.routers11.detour_counts        53042                       (Unspecified)
system.ruby.network.routers11.regular_var            0                       (Unspecified)
system.ruby.network.routers11.risk_counts            0                       (Unspecified)
system.ruby.network.routers11.sw_input_arbiter_activity      1028079                       (Unspecified)
system.ruby.network.routers11.sw_output_arbiter_activity      1016990                       (Unspecified)
system.ruby.network.routers12.Var_1                 0                       (Unspecified)
system.ruby.network.routers12.Var_2                 0                       (Unspecified)
system.ruby.network.routers12.Var_3                 0                       (Unspecified)
system.ruby.network.routers12.all_counts            0                       (Unspecified)
system.ruby.network.routers12.buffer_reads       727696                       (Unspecified)
system.ruby.network.routers12.buffer_writes       727696                       (Unspecified)
system.ruby.network.routers12.crossbar_activity       727696                       (Unspecified)
system.ruby.network.routers12.detour_counts        52922                       (Unspecified)
system.ruby.network.routers12.regular_var            0                       (Unspecified)
system.ruby.network.routers12.risk_counts            0                       (Unspecified)
system.ruby.network.routers12.sw_input_arbiter_activity       733054                       (Unspecified)
system.ruby.network.routers12.sw_output_arbiter_activity       727696                       (Unspecified)
system.ruby.network.routers13.Var_1                 0                       (Unspecified)
system.ruby.network.routers13.Var_2                 0                       (Unspecified)
system.ruby.network.routers13.Var_3                 0                       (Unspecified)
system.ruby.network.routers13.all_counts            0                       (Unspecified)
system.ruby.network.routers13.buffer_reads      1051213                       (Unspecified)
system.ruby.network.routers13.buffer_writes      1051213                       (Unspecified)
system.ruby.network.routers13.crossbar_activity      1051213                       (Unspecified)
system.ruby.network.routers13.detour_counts        52884                       (Unspecified)
system.ruby.network.routers13.regular_var            0                       (Unspecified)
system.ruby.network.routers13.risk_counts            0                       (Unspecified)
system.ruby.network.routers13.sw_input_arbiter_activity      1063062                       (Unspecified)
system.ruby.network.routers13.sw_output_arbiter_activity      1051213                       (Unspecified)
system.ruby.network.routers14.Var_1                 0                       (Unspecified)
system.ruby.network.routers14.Var_2                 0                       (Unspecified)
system.ruby.network.routers14.Var_3                 0                       (Unspecified)
system.ruby.network.routers14.all_counts            0                       (Unspecified)
system.ruby.network.routers14.buffer_reads      1046091                       (Unspecified)
system.ruby.network.routers14.buffer_writes      1046091                       (Unspecified)
system.ruby.network.routers14.crossbar_activity      1046091                       (Unspecified)
system.ruby.network.routers14.detour_counts        53045                       (Unspecified)
system.ruby.network.routers14.regular_var            0                       (Unspecified)
system.ruby.network.routers14.risk_counts            0                       (Unspecified)
system.ruby.network.routers14.sw_input_arbiter_activity      1057711                       (Unspecified)
system.ruby.network.routers14.sw_output_arbiter_activity      1046091                       (Unspecified)
system.ruby.network.routers15.Var_1                 0                       (Unspecified)
system.ruby.network.routers15.Var_2                 0                       (Unspecified)
system.ruby.network.routers15.Var_3                 0                       (Unspecified)
system.ruby.network.routers15.all_counts            0                       (Unspecified)
system.ruby.network.routers15.buffer_reads       722567                       (Unspecified)
system.ruby.network.routers15.buffer_writes       722567                       (Unspecified)
system.ruby.network.routers15.crossbar_activity       722567                       (Unspecified)
system.ruby.network.routers15.detour_counts        53028                       (Unspecified)
system.ruby.network.routers15.regular_var            0                       (Unspecified)
system.ruby.network.routers15.risk_counts            0                       (Unspecified)
system.ruby.network.routers15.sw_input_arbiter_activity       727757                       (Unspecified)
system.ruby.network.routers15.sw_output_arbiter_activity       722567                       (Unspecified)

---------- End Simulation Statistics   ----------
