
---------- Begin Simulation Statistics ----------
simSeconds                                   0.006224                       # Number of seconds simulated (Second)
simTicks                                   6224133000                       # Number of ticks simulated (Tick)
finalTick                                  6224133000                       # Number of ticks from beginning of simulation (restored from checkpoints and never reset) (Tick)
simFreq                                  1000000000000                       # The number of ticks per simulated second ((Tick/Second))
hostSeconds                                   1006.73                       # Real time elapsed on the host (Second)
hostTickRate                                  6182551                       # The number of ticks simulated per host second (ticks/s) ((Tick/Second))
hostMemory                                   11454116                       # Number of bytes of host memory used (Byte)
simInsts                                     85626800                       # Number of instructions simulated (Count)
simOps                                      138670832                       # Number of ops (including micro ops) simulated (Count)
hostInstRate                                    85055                       # Simulator instruction rate (inst/s) ((Count/Second))
hostOpRate                                     137744                       # Simulator op (including micro ops) rate (op/s) ((Count/Second))
system.clk_domain.clock                          1000                       # Clock period in ticks (Tick)
system.cpu0.numCycles                        12365254                       # Number of cpu cycles simulated (Cycle)
system.cpu0.numWorkItemsStarted                     0                       # Number of work items this cpu started (Count)
system.cpu0.numWorkItemsCompleted                   0                       # Number of work items this cpu completed (Count)
system.cpu0.instsAdded                        9779159                       # Number of instructions added to the IQ (excludes non-spec) (Count)
system.cpu0.nonSpecInstsAdded                    1095                       # Number of non-speculative instructions added to the IQ (Count)
system.cpu0.instsIssued                       9384248                       # Number of instructions issued (Count)
system.cpu0.squashedInstsIssued                  2890                       # Number of squashed instructions issued (Count)
system.cpu0.squashedInstsExamined             1113327                       # Number of squashed instructions iterated over during squash; mainly for profiling (Count)
system.cpu0.squashedOperandsExamined          2387836                       # Number of squashed operands that are examined and possibly removed from graph (Count)
system.cpu0.squashedNonSpecRemoved                242                       # Number of squashed non-spec instructions that were removed (Count)
system.cpu0.numIssuedDist::samples           11144674                       # Number of insts issued each cycle (Count)
system.cpu0.numIssuedDist::mean              0.842039                       # Number of insts issued each cycle (Count)
system.cpu0.numIssuedDist::stdev             1.615019                       # Number of insts issued each cycle (Count)
system.cpu0.numIssuedDist::underflows               0      0.00%      0.00% # Number of insts issued each cycle (Count)
system.cpu0.numIssuedDist::0                  8192355     73.51%     73.51% # Number of insts issued each cycle (Count)
system.cpu0.numIssuedDist::1                   343528      3.08%     76.59% # Number of insts issued each cycle (Count)
system.cpu0.numIssuedDist::2                   769182      6.90%     83.49% # Number of insts issued each cycle (Count)
system.cpu0.numIssuedDist::3                   806088      7.23%     90.73% # Number of insts issued each cycle (Count)
system.cpu0.numIssuedDist::4                   496356      4.45%     95.18% # Number of insts issued each cycle (Count)
system.cpu0.numIssuedDist::5                   276568      2.48%     97.66% # Number of insts issued each cycle (Count)
system.cpu0.numIssuedDist::6                   147740      1.33%     98.99% # Number of insts issued each cycle (Count)
system.cpu0.numIssuedDist::7                    73468      0.66%     99.65% # Number of insts issued each cycle (Count)
system.cpu0.numIssuedDist::8                    39389      0.35%    100.00% # Number of insts issued each cycle (Count)
system.cpu0.numIssuedDist::overflows                0      0.00%    100.00% # Number of insts issued each cycle (Count)
system.cpu0.numIssuedDist::min_value                0                       # Number of insts issued each cycle (Count)
system.cpu0.numIssuedDist::max_value                8                       # Number of insts issued each cycle (Count)
system.cpu0.numIssuedDist::total             11144674                       # Number of insts issued each cycle (Count)
system.cpu0.statFuBusy::No_OpClass                  0      0.00%      0.00% # attempts to use FU when none available (Count)
system.cpu0.statFuBusy::IntAlu                  43682     65.89%     65.89% # attempts to use FU when none available (Count)
system.cpu0.statFuBusy::IntMult                     0      0.00%     65.89% # attempts to use FU when none available (Count)
system.cpu0.statFuBusy::IntDiv                      0      0.00%     65.89% # attempts to use FU when none available (Count)
system.cpu0.statFuBusy::FloatAdd                    0      0.00%     65.89% # attempts to use FU when none available (Count)
system.cpu0.statFuBusy::FloatCmp                    0      0.00%     65.89% # attempts to use FU when none available (Count)
system.cpu0.statFuBusy::FloatCvt                    1      0.00%     65.89% # attempts to use FU when none available (Count)
system.cpu0.statFuBusy::FloatMult                   0      0.00%     65.89% # attempts to use FU when none available (Count)
system.cpu0.statFuBusy::FloatMultAcc                0      0.00%     65.89% # attempts to use FU when none available (Count)
system.cpu0.statFuBusy::FloatDiv                    0      0.00%     65.89% # attempts to use FU when none available (Count)
system.cpu0.statFuBusy::FloatMisc                   0      0.00%     65.89% # attempts to use FU when none available (Count)
system.cpu0.statFuBusy::FloatSqrt                   0      0.00%     65.89% # attempts to use FU when none available (Count)
system.cpu0.statFuBusy::SimdAdd                     0      0.00%     65.89% # attempts to use FU when none available (Count)
system.cpu0.statFuBusy::SimdAddAcc                  0      0.00%     65.89% # attempts to use FU when none available (Count)
system.cpu0.statFuBusy::SimdAlu                   123      0.19%     66.07% # attempts to use FU when none available (Count)
system.cpu0.statFuBusy::SimdCmp                     0      0.00%     66.07% # attempts to use FU when none available (Count)
system.cpu0.statFuBusy::SimdCvt                   168      0.25%     66.33% # attempts to use FU when none available (Count)
system.cpu0.statFuBusy::SimdMisc                    0      0.00%     66.33% # attempts to use FU when none available (Count)
system.cpu0.statFuBusy::SimdMult                    0      0.00%     66.33% # attempts to use FU when none available (Count)
system.cpu0.statFuBusy::SimdMultAcc                 0      0.00%     66.33% # attempts to use FU when none available (Count)
system.cpu0.statFuBusy::SimdShift                 206      0.31%     66.64% # attempts to use FU when none available (Count)
system.cpu0.statFuBusy::SimdShiftAcc                0      0.00%     66.64% # attempts to use FU when none available (Count)
system.cpu0.statFuBusy::SimdDiv                     0      0.00%     66.64% # attempts to use FU when none available (Count)
system.cpu0.statFuBusy::SimdSqrt                    0      0.00%     66.64% # attempts to use FU when none available (Count)
system.cpu0.statFuBusy::SimdFloatAdd                0      0.00%     66.64% # attempts to use FU when none available (Count)
system.cpu0.statFuBusy::SimdFloatAlu                0      0.00%     66.64% # attempts to use FU when none available (Count)
system.cpu0.statFuBusy::SimdFloatCmp                0      0.00%     66.64% # attempts to use FU when none available (Count)
system.cpu0.statFuBusy::SimdFloatCvt                0      0.00%     66.64% # attempts to use FU when none available (Count)
system.cpu0.statFuBusy::SimdFloatDiv                0      0.00%     66.64% # attempts to use FU when none available (Count)
system.cpu0.statFuBusy::SimdFloatMisc               0      0.00%     66.64% # attempts to use FU when none available (Count)
system.cpu0.statFuBusy::SimdFloatMult               0      0.00%     66.64% # attempts to use FU when none available (Count)
system.cpu0.statFuBusy::SimdFloatMultAcc            0      0.00%     66.64% # attempts to use FU when none available (Count)
system.cpu0.statFuBusy::SimdFloatSqrt               0      0.00%     66.64% # attempts to use FU when none available (Count)
system.cpu0.statFuBusy::SimdReduceAdd               0      0.00%     66.64% # attempts to use FU when none available (Count)
system.cpu0.statFuBusy::SimdReduceAlu               0      0.00%     66.64% # attempts to use FU when none available (Count)
system.cpu0.statFuBusy::SimdReduceCmp               0      0.00%     66.64% # attempts to use FU when none available (Count)
system.cpu0.statFuBusy::SimdFloatReduceAdd            0      0.00%     66.64% # attempts to use FU when none available (Count)
system.cpu0.statFuBusy::SimdFloatReduceCmp            0      0.00%     66.64% # attempts to use FU when none available (Count)
system.cpu0.statFuBusy::SimdAes                     0      0.00%     66.64% # attempts to use FU when none available (Count)
system.cpu0.statFuBusy::SimdAesMix                  0      0.00%     66.64% # attempts to use FU when none available (Count)
system.cpu0.statFuBusy::SimdSha1Hash                0      0.00%     66.64% # attempts to use FU when none available (Count)
system.cpu0.statFuBusy::SimdSha1Hash2               0      0.00%     66.64% # attempts to use FU when none available (Count)
system.cpu0.statFuBusy::SimdSha256Hash              0      0.00%     66.64% # attempts to use FU when none available (Count)
system.cpu0.statFuBusy::SimdSha256Hash2             0      0.00%     66.64% # attempts to use FU when none available (Count)
system.cpu0.statFuBusy::SimdShaSigma2               0      0.00%     66.64% # attempts to use FU when none available (Count)
system.cpu0.statFuBusy::SimdShaSigma3               0      0.00%     66.64% # attempts to use FU when none available (Count)
system.cpu0.statFuBusy::SimdPredAlu                 0      0.00%     66.64% # attempts to use FU when none available (Count)
system.cpu0.statFuBusy::MemRead                 12466     18.80%     85.44% # attempts to use FU when none available (Count)
system.cpu0.statFuBusy::MemWrite                 7783     11.74%     97.18% # attempts to use FU when none available (Count)
system.cpu0.statFuBusy::FloatMemRead             1405      2.12%     99.30% # attempts to use FU when none available (Count)
system.cpu0.statFuBusy::FloatMemWrite             464      0.70%    100.00% # attempts to use FU when none available (Count)
system.cpu0.statFuBusy::IprAccess                   0      0.00%    100.00% # attempts to use FU when none available (Count)
system.cpu0.statFuBusy::InstPrefetch                0      0.00%    100.00% # attempts to use FU when none available (Count)
system.cpu0.statIssuedInstType_0::No_OpClass        44111      0.47%      0.47% # Number of instructions issued per FU type, per thread (Count)
system.cpu0.statIssuedInstType_0::IntAlu      8277206     88.20%     88.67% # Number of instructions issued per FU type, per thread (Count)
system.cpu0.statIssuedInstType_0::IntMult           38      0.00%     88.67% # Number of instructions issued per FU type, per thread (Count)
system.cpu0.statIssuedInstType_0::IntDiv        38632      0.41%     89.09% # Number of instructions issued per FU type, per thread (Count)
system.cpu0.statIssuedInstType_0::FloatAdd         4376      0.05%     89.13% # Number of instructions issued per FU type, per thread (Count)
system.cpu0.statIssuedInstType_0::FloatCmp            0      0.00%     89.13% # Number of instructions issued per FU type, per thread (Count)
system.cpu0.statIssuedInstType_0::FloatCvt         1682      0.02%     89.15% # Number of instructions issued per FU type, per thread (Count)
system.cpu0.statIssuedInstType_0::FloatMult            0      0.00%     89.15% # Number of instructions issued per FU type, per thread (Count)
system.cpu0.statIssuedInstType_0::FloatMultAcc            0      0.00%     89.15% # Number of instructions issued per FU type, per thread (Count)
system.cpu0.statIssuedInstType_0::FloatDiv            0      0.00%     89.15% # Number of instructions issued per FU type, per thread (Count)
system.cpu0.statIssuedInstType_0::FloatMisc            0      0.00%     89.15% # Number of instructions issued per FU type, per thread (Count)
system.cpu0.statIssuedInstType_0::FloatSqrt            0      0.00%     89.15% # Number of instructions issued per FU type, per thread (Count)
system.cpu0.statIssuedInstType_0::SimdAdd         8516      0.09%     89.24% # Number of instructions issued per FU type, per thread (Count)
system.cpu0.statIssuedInstType_0::SimdAddAcc            0      0.00%     89.24% # Number of instructions issued per FU type, per thread (Count)
system.cpu0.statIssuedInstType_0::SimdAlu        17255      0.18%     89.42% # Number of instructions issued per FU type, per thread (Count)
system.cpu0.statIssuedInstType_0::SimdCmp            0      0.00%     89.42% # Number of instructions issued per FU type, per thread (Count)
system.cpu0.statIssuedInstType_0::SimdCvt        18898      0.20%     89.63% # Number of instructions issued per FU type, per thread (Count)
system.cpu0.statIssuedInstType_0::SimdMisc         8971      0.10%     89.72% # Number of instructions issued per FU type, per thread (Count)
system.cpu0.statIssuedInstType_0::SimdMult            0      0.00%     89.72% # Number of instructions issued per FU type, per thread (Count)
system.cpu0.statIssuedInstType_0::SimdMultAcc            0      0.00%     89.72% # Number of instructions issued per FU type, per thread (Count)
system.cpu0.statIssuedInstType_0::SimdShift         3003      0.03%     89.75% # Number of instructions issued per FU type, per thread (Count)
system.cpu0.statIssuedInstType_0::SimdShiftAcc            0      0.00%     89.75% # Number of instructions issued per FU type, per thread (Count)
system.cpu0.statIssuedInstType_0::SimdDiv            0      0.00%     89.75% # Number of instructions issued per FU type, per thread (Count)
system.cpu0.statIssuedInstType_0::SimdSqrt            0      0.00%     89.75% # Number of instructions issued per FU type, per thread (Count)
system.cpu0.statIssuedInstType_0::SimdFloatAdd            0      0.00%     89.75% # Number of instructions issued per FU type, per thread (Count)
system.cpu0.statIssuedInstType_0::SimdFloatAlu            0      0.00%     89.75% # Number of instructions issued per FU type, per thread (Count)
system.cpu0.statIssuedInstType_0::SimdFloatCmp            0      0.00%     89.75% # Number of instructions issued per FU type, per thread (Count)
system.cpu0.statIssuedInstType_0::SimdFloatCvt            0      0.00%     89.75% # Number of instructions issued per FU type, per thread (Count)
system.cpu0.statIssuedInstType_0::SimdFloatDiv            0      0.00%     89.75% # Number of instructions issued per FU type, per thread (Count)
system.cpu0.statIssuedInstType_0::SimdFloatMisc            0      0.00%     89.75% # Number of instructions issued per FU type, per thread (Count)
system.cpu0.statIssuedInstType_0::SimdFloatMult            0      0.00%     89.75% # Number of instructions issued per FU type, per thread (Count)
system.cpu0.statIssuedInstType_0::SimdFloatMultAcc            0      0.00%     89.75% # Number of instructions issued per FU type, per thread (Count)
system.cpu0.statIssuedInstType_0::SimdFloatSqrt            0      0.00%     89.75% # Number of instructions issued per FU type, per thread (Count)
system.cpu0.statIssuedInstType_0::SimdReduceAdd            0      0.00%     89.75% # Number of instructions issued per FU type, per thread (Count)
system.cpu0.statIssuedInstType_0::SimdReduceAlu            0      0.00%     89.75% # Number of instructions issued per FU type, per thread (Count)
system.cpu0.statIssuedInstType_0::SimdReduceCmp            0      0.00%     89.75% # Number of instructions issued per FU type, per thread (Count)
system.cpu0.statIssuedInstType_0::SimdFloatReduceAdd            0      0.00%     89.75% # Number of instructions issued per FU type, per thread (Count)
system.cpu0.statIssuedInstType_0::SimdFloatReduceCmp            0      0.00%     89.75% # Number of instructions issued per FU type, per thread (Count)
system.cpu0.statIssuedInstType_0::SimdAes            0      0.00%     89.75% # Number of instructions issued per FU type, per thread (Count)
system.cpu0.statIssuedInstType_0::SimdAesMix            0      0.00%     89.75% # Number of instructions issued per FU type, per thread (Count)
system.cpu0.statIssuedInstType_0::SimdSha1Hash            0      0.00%     89.75% # Number of instructions issued per FU type, per thread (Count)
system.cpu0.statIssuedInstType_0::SimdSha1Hash2            0      0.00%     89.75% # Number of instructions issued per FU type, per thread (Count)
system.cpu0.statIssuedInstType_0::SimdSha256Hash            0      0.00%     89.75% # Number of instructions issued per FU type, per thread (Count)
system.cpu0.statIssuedInstType_0::SimdSha256Hash2            0      0.00%     89.75% # Number of instructions issued per FU type, per thread (Count)
system.cpu0.statIssuedInstType_0::SimdShaSigma2            0      0.00%     89.75% # Number of instructions issued per FU type, per thread (Count)
system.cpu0.statIssuedInstType_0::SimdShaSigma3            0      0.00%     89.75% # Number of instructions issued per FU type, per thread (Count)
system.cpu0.statIssuedInstType_0::SimdPredAlu            0      0.00%     89.75% # Number of instructions issued per FU type, per thread (Count)
system.cpu0.statIssuedInstType_0::MemRead       674658      7.19%     96.94% # Number of instructions issued per FU type, per thread (Count)
system.cpu0.statIssuedInstType_0::MemWrite       234613      2.50%     99.44% # Number of instructions issued per FU type, per thread (Count)
system.cpu0.statIssuedInstType_0::FloatMemRead        33943      0.36%     99.80% # Number of instructions issued per FU type, per thread (Count)
system.cpu0.statIssuedInstType_0::FloatMemWrite        18346      0.20%    100.00% # Number of instructions issued per FU type, per thread (Count)
system.cpu0.statIssuedInstType_0::IprAccess            0      0.00%    100.00% # Number of instructions issued per FU type, per thread (Count)
system.cpu0.statIssuedInstType_0::InstPrefetch            0      0.00%    100.00% # Number of instructions issued per FU type, per thread (Count)
system.cpu0.statIssuedInstType_0::total       9384248                       # Number of instructions issued per FU type, per thread (Count)
system.cpu0.issueRate                        0.758921                       # Inst issue rate ((Count/Cycle))
system.cpu0.fuBusy                              66298                       # FU busy when requested (Count)
system.cpu0.fuBusyRate                       0.007065                       # FU busy rate (busy events/executed inst) ((Count/Count))
system.cpu0.intInstQueueReads                29747394                       # Number of integer instruction queue reads (Count)
system.cpu0.intInstQueueWrites               10716069                       # Number of integer instruction queue writes (Count)
system.cpu0.intInstQueueWakeupAccesses        9206976                       # Number of integer instruction queue wakeup accesses (Count)
system.cpu0.fpInstQueueReads                   234964                       # Number of floating instruction queue reads (Count)
system.cpu0.fpInstQueueWrites                  178783                       # Number of floating instruction queue writes (Count)
system.cpu0.fpInstQueueWakeupAccesses          112527                       # Number of floating instruction queue wakeup accesses (Count)
system.cpu0.vecInstQueueReads                       0                       # Number of vector instruction queue reads (Count)
system.cpu0.vecInstQueueWrites                      0                       # Number of vector instruction queue writes (Count)
system.cpu0.vecInstQueueWakeupAccesses              0                       # Number of vector instruction queue wakeup accesses (Count)
system.cpu0.intAluAccesses                    9287915                       # Number of integer alu accesses (Count)
system.cpu0.fpAluAccesses                      118520                       # Number of floating point alu accesses (Count)
system.cpu0.vecAluAccesses                          0                       # Number of vector alu accesses (Count)
system.cpu0.numInsts                          9349874                       # Number of executed instructions (Count)
system.cpu0.numLoadInsts                       700444                       # Number of load instructions executed (Count)
system.cpu0.numSquashedInsts                    34374                       # Number of squashed instructions skipped in execute (Count)
system.cpu0.numSwp                                  0                       # Number of swp insts executed (Count)
system.cpu0.numNop                                  0                       # Number of nop insts executed (Count)
system.cpu0.numRefs                            951372                       # Number of memory reference insts executed (Count)
system.cpu0.numBranches                        645659                       # Number of branches executed (Count)
system.cpu0.numStoreInsts                      250928                       # Number of stores executed (Count)
system.cpu0.numRate                          0.756141                       # Inst execution rate ((Count/Cycle))
system.cpu0.timesIdled                           2384                       # Number of times that the entire CPU went into an idle state and unscheduled itself (Count)
system.cpu0.idleCycles                        1220580                       # Total number of cycles that the CPU has spent unscheduled due to idling (Cycle)
system.cpu0.committedInsts                    5351675                       # Number of Instructions Simulated (Count)
system.cpu0.committedOps                      8666927                       # Number of Ops (including micro ops) Simulated (Count)
system.cpu0.cpi                              2.310539                       # CPI: Cycles Per Instruction ((Cycle/Count))
system.cpu0.totalCpi                         2.310539                       # CPI: Total CPI of All Threads ((Cycle/Count))
system.cpu0.ipc                              0.432799                       # IPC: Instructions Per Cycle ((Count/Cycle))
system.cpu0.totalIpc                         0.432799                       # IPC: Total IPC of All Threads ((Count/Cycle))
system.cpu0.intRegfileReads                  15503112                       # Number of integer regfile reads (Count)
system.cpu0.intRegfileWrites                  7573426                       # Number of integer regfile writes (Count)
system.cpu0.fpRegfileReads                     153111                       # Number of floating regfile reads (Count)
system.cpu0.fpRegfileWrites                     84899                       # Number of floating regfile writes (Count)
system.cpu0.ccRegfileReads                    9339483                       # number of cc regfile reads (Count)
system.cpu0.ccRegfileWrites                   4909563                       # number of cc regfile writes (Count)
system.cpu0.miscRegfileReads                  2286717                       # number of misc regfile reads (Count)
system.cpu0.miscRegfileWrites                     846                       # number of misc regfile writes (Count)
system.cpu0.MemDepUnit__0.insertedLoads        737420                       # Number of loads inserted to the mem dependence unit. (Count)
system.cpu0.MemDepUnit__0.insertedStores       268849                       # Number of stores inserted to the mem dependence unit. (Count)
system.cpu0.MemDepUnit__0.conflictingLoads        48195                       # Number of conflicting loads. (Count)
system.cpu0.MemDepUnit__0.conflictingStores        34089                       # Number of conflicting stores. (Count)
system.cpu0.MemDepUnit__1.insertedLoads             0                       # Number of loads inserted to the mem dependence unit. (Count)
system.cpu0.MemDepUnit__1.insertedStores            0                       # Number of stores inserted to the mem dependence unit. (Count)
system.cpu0.MemDepUnit__1.conflictingLoads            0                       # Number of conflicting loads. (Count)
system.cpu0.MemDepUnit__1.conflictingStores            0                       # Number of conflicting stores. (Count)
system.cpu0.MemDepUnit__2.insertedLoads             0                       # Number of loads inserted to the mem dependence unit. (Count)
system.cpu0.MemDepUnit__2.insertedStores            0                       # Number of stores inserted to the mem dependence unit. (Count)
system.cpu0.MemDepUnit__2.conflictingLoads            0                       # Number of conflicting loads. (Count)
system.cpu0.MemDepUnit__2.conflictingStores            0                       # Number of conflicting stores. (Count)
system.cpu0.MemDepUnit__3.insertedLoads             0                       # Number of loads inserted to the mem dependence unit. (Count)
system.cpu0.MemDepUnit__3.insertedStores            0                       # Number of stores inserted to the mem dependence unit. (Count)
system.cpu0.MemDepUnit__3.conflictingLoads            0                       # Number of conflicting loads. (Count)
system.cpu0.MemDepUnit__3.conflictingStores            0                       # Number of conflicting stores. (Count)
system.cpu0.branchPred.lookups                 768232                       # Number of BP lookups (Count)
system.cpu0.branchPred.condPredicted           707530                       # Number of conditional branches predicted (Count)
system.cpu0.branchPred.condIncorrect            19539                       # Number of conditional branches incorrect (Count)
system.cpu0.branchPred.BTBLookups              494331                       # Number of BTB lookups (Count)
system.cpu0.branchPred.BTBUpdates                9379                       # Number of BTB updates (Count)
system.cpu0.branchPred.BTBHits                 490091                       # Number of BTB hits (Count)
system.cpu0.branchPred.BTBHitRatio           0.991423                       # BTB Hit Ratio (Ratio)
system.cpu0.branchPred.RASUsed                  14303                       # Number of times the RAS was used to get a target. (Count)
system.cpu0.branchPred.RASIncorrect                 6                       # Number of incorrect RAS predictions. (Count)
system.cpu0.branchPred.indirectLookups           9974                       # Number of indirect predictor lookups. (Count)
system.cpu0.branchPred.indirectHits              5347                       # Number of indirect target hits. (Count)
system.cpu0.branchPred.indirectMisses            4627                       # Number of indirect misses. (Count)
system.cpu0.branchPred.indirectMispredicted         1253                       # Number of mispredicted indirect branches. (Count)
system.cpu0.commit.commitSquashedInsts        1104206                       # The number of squashed insts skipped by commit (Count)
system.cpu0.commit.commitNonSpecStalls            853                       # The number of times commit has been forced to stall to communicate backwards (Count)
system.cpu0.commit.branchMispredicts            21016                       # The number of times a branch was mispredicted (Count)
system.cpu0.commit.numCommittedDist::samples     10983782                       # Number of insts commited each cycle (Count)
system.cpu0.commit.numCommittedDist::mean     0.789066                       # Number of insts commited each cycle (Count)
system.cpu0.commit.numCommittedDist::stdev     1.895696                       # Number of insts commited each cycle (Count)
system.cpu0.commit.numCommittedDist::underflows            0      0.00%      0.00% # Number of insts commited each cycle (Count)
system.cpu0.commit.numCommittedDist::0        8355883     76.07%     76.07% # Number of insts commited each cycle (Count)
system.cpu0.commit.numCommittedDist::1         950615      8.65%     84.73% # Number of insts commited each cycle (Count)
system.cpu0.commit.numCommittedDist::2         531025      4.83%     89.56% # Number of insts commited each cycle (Count)
system.cpu0.commit.numCommittedDist::3         251647      2.29%     91.86% # Number of insts commited each cycle (Count)
system.cpu0.commit.numCommittedDist::4          49413      0.45%     92.31% # Number of insts commited each cycle (Count)
system.cpu0.commit.numCommittedDist::5         323215      2.94%     95.25% # Number of insts commited each cycle (Count)
system.cpu0.commit.numCommittedDist::6          23738      0.22%     95.46% # Number of insts commited each cycle (Count)
system.cpu0.commit.numCommittedDist::7          42802      0.39%     95.85% # Number of insts commited each cycle (Count)
system.cpu0.commit.numCommittedDist::8         455444      4.15%    100.00% # Number of insts commited each cycle (Count)
system.cpu0.commit.numCommittedDist::overflows            0      0.00%    100.00% # Number of insts commited each cycle (Count)
system.cpu0.commit.numCommittedDist::min_value            0                       # Number of insts commited each cycle (Count)
system.cpu0.commit.numCommittedDist::max_value            8                       # Number of insts commited each cycle (Count)
system.cpu0.commit.numCommittedDist::total     10983782                       # Number of insts commited each cycle (Count)
system.cpu0.commit.instsCommitted             5351675                       # Number of instructions committed (Count)
system.cpu0.commit.opsCommitted               8666927                       # Number of ops (including micro ops) committed (Count)
system.cpu0.commit.memRefs                     811798                       # Number of memory references committed (Count)
system.cpu0.commit.loads                       586917                       # Number of loads committed (Count)
system.cpu0.commit.amos                             0                       # Number of atomic instructions committed (Count)
system.cpu0.commit.membars                          2                       # Number of memory barriers committed (Count)
system.cpu0.commit.branches                    607701                       # Number of branches committed (Count)
system.cpu0.commit.vectorInstructions               0                       # Number of committed Vector instructions. (Count)
system.cpu0.commit.floating                     82441                       # Number of committed floating point instructions. (Count)
system.cpu0.commit.integer                    8578220                       # Number of committed integer instructions. (Count)
system.cpu0.commit.functionCalls                10325                       # Number of function calls committed. (Count)
system.cpu0.commit.committedInstType_0::No_OpClass        36235      0.42%      0.42% # Class of committed instruction (Count)
system.cpu0.commit.committedInstType_0::IntAlu      7736760     89.27%     89.69% # Class of committed instruction (Count)
system.cpu0.commit.committedInstType_0::IntMult           29      0.00%     89.69% # Class of committed instruction (Count)
system.cpu0.commit.committedInstType_0::IntDiv        36267      0.42%     90.10% # Class of committed instruction (Count)
system.cpu0.commit.committedInstType_0::FloatAdd         3202      0.04%     90.14% # Class of committed instruction (Count)
system.cpu0.commit.committedInstType_0::FloatCmp            0      0.00%     90.14% # Class of committed instruction (Count)
system.cpu0.commit.committedInstType_0::FloatCvt         1504      0.02%     90.16% # Class of committed instruction (Count)
system.cpu0.commit.committedInstType_0::FloatMult            0      0.00%     90.16% # Class of committed instruction (Count)
system.cpu0.commit.committedInstType_0::FloatMultAcc            0      0.00%     90.16% # Class of committed instruction (Count)
system.cpu0.commit.committedInstType_0::FloatDiv            0      0.00%     90.16% # Class of committed instruction (Count)
system.cpu0.commit.committedInstType_0::FloatMisc            0      0.00%     90.16% # Class of committed instruction (Count)
system.cpu0.commit.committedInstType_0::FloatSqrt            0      0.00%     90.16% # Class of committed instruction (Count)
system.cpu0.commit.committedInstType_0::SimdAdd         6750      0.08%     90.24% # Class of committed instruction (Count)
system.cpu0.commit.committedInstType_0::SimdAddAcc            0      0.00%     90.24% # Class of committed instruction (Count)
system.cpu0.commit.committedInstType_0::SimdAlu        12220      0.14%     90.38% # Class of committed instruction (Count)
system.cpu0.commit.committedInstType_0::SimdCmp            0      0.00%     90.38% # Class of committed instruction (Count)
system.cpu0.commit.committedInstType_0::SimdCvt        13196      0.15%     90.53% # Class of committed instruction (Count)
system.cpu0.commit.committedInstType_0::SimdMisc         7208      0.08%     90.61% # Class of committed instruction (Count)
system.cpu0.commit.committedInstType_0::SimdMult            0      0.00%     90.61% # Class of committed instruction (Count)
system.cpu0.commit.committedInstType_0::SimdMultAcc            0      0.00%     90.61% # Class of committed instruction (Count)
system.cpu0.commit.committedInstType_0::SimdShift         1758      0.02%     90.63% # Class of committed instruction (Count)
system.cpu0.commit.committedInstType_0::SimdShiftAcc            0      0.00%     90.63% # Class of committed instruction (Count)
system.cpu0.commit.committedInstType_0::SimdDiv            0      0.00%     90.63% # Class of committed instruction (Count)
system.cpu0.commit.committedInstType_0::SimdSqrt            0      0.00%     90.63% # Class of committed instruction (Count)
system.cpu0.commit.committedInstType_0::SimdFloatAdd            0      0.00%     90.63% # Class of committed instruction (Count)
system.cpu0.commit.committedInstType_0::SimdFloatAlu            0      0.00%     90.63% # Class of committed instruction (Count)
system.cpu0.commit.committedInstType_0::SimdFloatCmp            0      0.00%     90.63% # Class of committed instruction (Count)
system.cpu0.commit.committedInstType_0::SimdFloatCvt            0      0.00%     90.63% # Class of committed instruction (Count)
system.cpu0.commit.committedInstType_0::SimdFloatDiv            0      0.00%     90.63% # Class of committed instruction (Count)
system.cpu0.commit.committedInstType_0::SimdFloatMisc            0      0.00%     90.63% # Class of committed instruction (Count)
system.cpu0.commit.committedInstType_0::SimdFloatMult            0      0.00%     90.63% # Class of committed instruction (Count)
system.cpu0.commit.committedInstType_0::SimdFloatMultAcc            0      0.00%     90.63% # Class of committed instruction (Count)
system.cpu0.commit.committedInstType_0::SimdFloatSqrt            0      0.00%     90.63% # Class of committed instruction (Count)
system.cpu0.commit.committedInstType_0::SimdReduceAdd            0      0.00%     90.63% # Class of committed instruction (Count)
system.cpu0.commit.committedInstType_0::SimdReduceAlu            0      0.00%     90.63% # Class of committed instruction (Count)
system.cpu0.commit.committedInstType_0::SimdReduceCmp            0      0.00%     90.63% # Class of committed instruction (Count)
system.cpu0.commit.committedInstType_0::SimdFloatReduceAdd            0      0.00%     90.63% # Class of committed instruction (Count)
system.cpu0.commit.committedInstType_0::SimdFloatReduceCmp            0      0.00%     90.63% # Class of committed instruction (Count)
system.cpu0.commit.committedInstType_0::SimdAes            0      0.00%     90.63% # Class of committed instruction (Count)
system.cpu0.commit.committedInstType_0::SimdAesMix            0      0.00%     90.63% # Class of committed instruction (Count)
system.cpu0.commit.committedInstType_0::SimdSha1Hash            0      0.00%     90.63% # Class of committed instruction (Count)
system.cpu0.commit.committedInstType_0::SimdSha1Hash2            0      0.00%     90.63% # Class of committed instruction (Count)
system.cpu0.commit.committedInstType_0::SimdSha256Hash            0      0.00%     90.63% # Class of committed instruction (Count)
system.cpu0.commit.committedInstType_0::SimdSha256Hash2            0      0.00%     90.63% # Class of committed instruction (Count)
system.cpu0.commit.committedInstType_0::SimdShaSigma2            0      0.00%     90.63% # Class of committed instruction (Count)
system.cpu0.commit.committedInstType_0::SimdShaSigma3            0      0.00%     90.63% # Class of committed instruction (Count)
system.cpu0.commit.committedInstType_0::SimdPredAlu            0      0.00%     90.63% # Class of committed instruction (Count)
system.cpu0.commit.committedInstType_0::MemRead       565448      6.52%     97.16% # Class of committed instruction (Count)
system.cpu0.commit.committedInstType_0::MemWrite       210647      2.43%     99.59% # Class of committed instruction (Count)
system.cpu0.commit.committedInstType_0::FloatMemRead        21469      0.25%     99.84% # Class of committed instruction (Count)
system.cpu0.commit.committedInstType_0::FloatMemWrite        14234      0.16%    100.00% # Class of committed instruction (Count)
system.cpu0.commit.committedInstType_0::IprAccess            0      0.00%    100.00% # Class of committed instruction (Count)
system.cpu0.commit.committedInstType_0::InstPrefetch            0      0.00%    100.00% # Class of committed instruction (Count)
system.cpu0.commit.committedInstType_0::total      8666927                       # Class of committed instruction (Count)
system.cpu0.commit.commitEligibleSamples       455444                       # number cycles where commit BW limit reached (Cycle)
system.cpu0.decode.idleCycles                  717915                       # Number of cycles decode is idle (Cycle)
system.cpu0.decode.blockedCycles              9042186                       # Number of cycles decode is blocked (Cycle)
system.cpu0.decode.runCycles                   697424                       # Number of cycles decode is running (Cycle)
system.cpu0.decode.unblockCycles               664334                       # Number of cycles decode is unblocking (Cycle)
system.cpu0.decode.squashCycles                 22815                       # Number of cycles decode is squashing (Cycle)
system.cpu0.decode.branchResolved              474058                       # Number of times decode resolved a branch (Count)
system.cpu0.decode.branchMispred                 1226                       # Number of times decode detected a branch misprediction (Count)
system.cpu0.decode.decodedInsts               9996172                       # Number of instructions handled by decode (Count)
system.cpu0.decode.squashedInsts                 5814                       # Number of squashed instructions handled by decode (Count)
system.cpu0.fetch.icacheStallCycles            558961                       # Number of cycles fetch is stalled on an Icache miss (Cycle)
system.cpu0.fetch.insts                       6264611                       # Number of instructions fetch has processed (Count)
system.cpu0.fetch.branches                     768232                       # Number of branches that fetch encountered (Count)
system.cpu0.fetch.predictedBranches            509741                       # Number of branches that fetch has predicted taken (Count)
system.cpu0.fetch.cycles                     10311519                       # Number of cycles fetch has run and was not squashing or blocked (Cycle)
system.cpu0.fetch.squashCycles                  48020                       # Number of cycles fetch has spent squashing (Cycle)
system.cpu0.fetch.miscStallCycles               17453                       # Number of cycles fetch has spent waiting on interrupts, or bad addresses, or out of MSHRs (Cycle)
system.cpu0.fetch.pendingTrapStallCycles        17460                       # Number of stall cycles due to pending traps (Cycle)
system.cpu0.fetch.icacheWaitRetryStallCycles       215271                       # Number of stall cycles due to full MSHR (Cycle)
system.cpu0.fetch.cacheLines                   349231                       # Number of cache lines fetched (Count)
system.cpu0.fetch.icacheSquashes                 6167                       # Number of outstanding Icache misses that were squashed (Count)
system.cpu0.fetch.nisnDist::samples          11144674                       # Number of instructions fetched each cycle (Total) (Count)
system.cpu0.fetch.nisnDist::mean             0.927338                       # Number of instructions fetched each cycle (Total) (Count)
system.cpu0.fetch.nisnDist::stdev            2.364262                       # Number of instructions fetched each cycle (Total) (Count)
system.cpu0.fetch.nisnDist::underflows              0      0.00%      0.00% # Number of instructions fetched each cycle (Total) (Count)
system.cpu0.fetch.nisnDist::0                 9422008     84.54%     84.54% # Number of instructions fetched each cycle (Total) (Count)
system.cpu0.fetch.nisnDist::1                  106729      0.96%     85.50% # Number of instructions fetched each cycle (Total) (Count)
system.cpu0.fetch.nisnDist::2                   88673      0.80%     86.30% # Number of instructions fetched each cycle (Total) (Count)
system.cpu0.fetch.nisnDist::3                  132841      1.19%     87.49% # Number of instructions fetched each cycle (Total) (Count)
system.cpu0.fetch.nisnDist::4                  224580      2.02%     89.50% # Number of instructions fetched each cycle (Total) (Count)
system.cpu0.fetch.nisnDist::5                  112330      1.01%     90.51% # Number of instructions fetched each cycle (Total) (Count)
system.cpu0.fetch.nisnDist::6                   78635      0.71%     91.22% # Number of instructions fetched each cycle (Total) (Count)
system.cpu0.fetch.nisnDist::7                  110526      0.99%     92.21% # Number of instructions fetched each cycle (Total) (Count)
system.cpu0.fetch.nisnDist::8                  868352      7.79%    100.00% # Number of instructions fetched each cycle (Total) (Count)
system.cpu0.fetch.nisnDist::overflows               0      0.00%    100.00% # Number of instructions fetched each cycle (Total) (Count)
system.cpu0.fetch.nisnDist::min_value               0                       # Number of instructions fetched each cycle (Total) (Count)
system.cpu0.fetch.nisnDist::max_value               8                       # Number of instructions fetched each cycle (Total) (Count)
system.cpu0.fetch.nisnDist::total            11144674                       # Number of instructions fetched each cycle (Total) (Count)
system.cpu0.fetch.branchRate                 0.062128                       # Number of branch fetches per cycle (Ratio)
system.cpu0.fetch.rate                       0.506630                       # Number of inst fetches per cycle ((Count/Cycle))
system.cpu0.iew.idleCycles                          0                       # Number of cycles IEW is idle (Cycle)
system.cpu0.iew.squashCycles                    22815                       # Number of cycles IEW is squashing (Cycle)
system.cpu0.iew.blockCycles                   5411915                       # Number of cycles IEW is blocking (Cycle)
system.cpu0.iew.unblockCycles                  151647                       # Number of cycles IEW is unblocking (Cycle)
system.cpu0.iew.dispatchedInsts               9780254                       # Number of instructions dispatched to IQ (Count)
system.cpu0.iew.dispSquashedInsts                1422                       # Number of squashed instructions skipped by dispatch (Count)
system.cpu0.iew.dispLoadInsts                  737420                       # Number of dispatched load instructions (Count)
system.cpu0.iew.dispStoreInsts                 268849                       # Number of dispatched store instructions (Count)
system.cpu0.iew.dispNonSpecInsts                  899                       # Number of dispatched non-speculative instructions (Count)
system.cpu0.iew.iqFullEvents                     7375                       # Number of times the IQ has become full, causing a stall (Count)
system.cpu0.iew.lsqFullEvents                  139139                       # Number of times the LSQ has become full, causing a stall (Count)
system.cpu0.iew.memOrderViolationEvents          1283                       # Number of memory order violations (Count)
system.cpu0.iew.predictedTakenIncorrect          9559                       # Number of branches that were predicted taken incorrectly (Count)
system.cpu0.iew.predictedNotTakenIncorrect        13699                       # Number of branches that were predicted not taken incorrectly (Count)
system.cpu0.iew.branchMispredicts               23258                       # Number of branch mispredicts detected at execute (Count)
system.cpu0.iew.instsToCommit                 9331667                       # Cumulative count of insts sent to commit (Count)
system.cpu0.iew.writebackCount                9319503                       # Cumulative count of insts written-back (Count)
system.cpu0.iew.producerInst                  7932149                       # Number of instructions producing a value (Count)
system.cpu0.iew.consumerInst                 18357908                       # Number of instructions consuming a value (Count)
system.cpu0.iew.wbRate                       0.753685                       # Insts written-back per cycle ((Count/Cycle))
system.cpu0.iew.wbFanout                     0.432083                       # Average fanout of values written-back ((Count/Count))
system.cpu0.interrupts.clk_domain.clock          8000                       # Clock period in ticks (Tick)
system.cpu0.lsq0.forwLoads                      60726                       # Number of loads that had data forwarded from stores (Count)
system.cpu0.lsq0.squashedLoads                 150503                       # Number of loads squashed (Count)
system.cpu0.lsq0.ignoredResponses                  98                       # Number of memory responses ignored because the instruction is squashed (Count)
system.cpu0.lsq0.memOrderViolation               1283                       # Number of memory ordering violations (Count)
system.cpu0.lsq0.squashedStores                 43968                       # Number of stores squashed (Count)
system.cpu0.lsq0.rescheduledLoads                  16                       # Number of loads that were rescheduled (Count)
system.cpu0.lsq0.blockedByCache                  2066                       # Number of times an access to memory failed due to the cache being blocked (Count)
system.cpu0.lsq0.loadToUse::samples            586839                       # Distribution of cycle latency between the first time a load is issued and its completion (Unspecified)
system.cpu0.lsq0.loadToUse::mean            59.650759                       # Distribution of cycle latency between the first time a load is issued and its completion (Unspecified)
system.cpu0.lsq0.loadToUse::stdev          213.152898                       # Distribution of cycle latency between the first time a load is issued and its completion (Unspecified)
system.cpu0.lsq0.loadToUse::0-9                541436     92.26%     92.26% # Distribution of cycle latency between the first time a load is issued and its completion (Unspecified)
system.cpu0.lsq0.loadToUse::10-19                  48      0.01%     92.27% # Distribution of cycle latency between the first time a load is issued and its completion (Unspecified)
system.cpu0.lsq0.loadToUse::20-29                  71      0.01%     92.28% # Distribution of cycle latency between the first time a load is issued and its completion (Unspecified)
system.cpu0.lsq0.loadToUse::30-39                  81      0.01%     92.30% # Distribution of cycle latency between the first time a load is issued and its completion (Unspecified)
system.cpu0.lsq0.loadToUse::40-49                  60      0.01%     92.31% # Distribution of cycle latency between the first time a load is issued and its completion (Unspecified)
system.cpu0.lsq0.loadToUse::50-59                 101      0.02%     92.32% # Distribution of cycle latency between the first time a load is issued and its completion (Unspecified)
system.cpu0.lsq0.loadToUse::60-69                  76      0.01%     92.34% # Distribution of cycle latency between the first time a load is issued and its completion (Unspecified)
system.cpu0.lsq0.loadToUse::70-79                  67      0.01%     92.35% # Distribution of cycle latency between the first time a load is issued and its completion (Unspecified)
system.cpu0.lsq0.loadToUse::80-89                  55      0.01%     92.36% # Distribution of cycle latency between the first time a load is issued and its completion (Unspecified)
system.cpu0.lsq0.loadToUse::90-99                  76      0.01%     92.37% # Distribution of cycle latency between the first time a load is issued and its completion (Unspecified)
system.cpu0.lsq0.loadToUse::100-109                54      0.01%     92.38% # Distribution of cycle latency between the first time a load is issued and its completion (Unspecified)
system.cpu0.lsq0.loadToUse::110-119                53      0.01%     92.39% # Distribution of cycle latency between the first time a load is issued and its completion (Unspecified)
system.cpu0.lsq0.loadToUse::120-129                66      0.01%     92.40% # Distribution of cycle latency between the first time a load is issued and its completion (Unspecified)
system.cpu0.lsq0.loadToUse::130-139                38      0.01%     92.41% # Distribution of cycle latency between the first time a load is issued and its completion (Unspecified)
system.cpu0.lsq0.loadToUse::140-149                52      0.01%     92.42% # Distribution of cycle latency between the first time a load is issued and its completion (Unspecified)
system.cpu0.lsq0.loadToUse::150-159                48      0.01%     92.42% # Distribution of cycle latency between the first time a load is issued and its completion (Unspecified)
system.cpu0.lsq0.loadToUse::160-169                80      0.01%     92.44% # Distribution of cycle latency between the first time a load is issued and its completion (Unspecified)
system.cpu0.lsq0.loadToUse::170-179               138      0.02%     92.46% # Distribution of cycle latency between the first time a load is issued and its completion (Unspecified)
system.cpu0.lsq0.loadToUse::180-189               576      0.10%     92.56% # Distribution of cycle latency between the first time a load is issued and its completion (Unspecified)
system.cpu0.lsq0.loadToUse::190-199                44      0.01%     92.57% # Distribution of cycle latency between the first time a load is issued and its completion (Unspecified)
system.cpu0.lsq0.loadToUse::200-209                49      0.01%     92.58% # Distribution of cycle latency between the first time a load is issued and its completion (Unspecified)
system.cpu0.lsq0.loadToUse::210-219                70      0.01%     92.59% # Distribution of cycle latency between the first time a load is issued and its completion (Unspecified)
system.cpu0.lsq0.loadToUse::220-229                92      0.02%     92.60% # Distribution of cycle latency between the first time a load is issued and its completion (Unspecified)
system.cpu0.lsq0.loadToUse::230-239               123      0.02%     92.62% # Distribution of cycle latency between the first time a load is issued and its completion (Unspecified)
system.cpu0.lsq0.loadToUse::240-249               538      0.09%     92.72% # Distribution of cycle latency between the first time a load is issued and its completion (Unspecified)
system.cpu0.lsq0.loadToUse::250-259                36      0.01%     92.72% # Distribution of cycle latency between the first time a load is issued and its completion (Unspecified)
system.cpu0.lsq0.loadToUse::260-269                51      0.01%     92.73% # Distribution of cycle latency between the first time a load is issued and its completion (Unspecified)
system.cpu0.lsq0.loadToUse::270-279                55      0.01%     92.74% # Distribution of cycle latency between the first time a load is issued and its completion (Unspecified)
system.cpu0.lsq0.loadToUse::280-289                96      0.02%     92.76% # Distribution of cycle latency between the first time a load is issued and its completion (Unspecified)
system.cpu0.lsq0.loadToUse::290-299               145      0.02%     92.78% # Distribution of cycle latency between the first time a load is issued and its completion (Unspecified)
system.cpu0.lsq0.loadToUse::overflows           42364      7.22%    100.00% # Distribution of cycle latency between the first time a load is issued and its completion (Unspecified)
system.cpu0.lsq0.loadToUse::min_value               2                       # Distribution of cycle latency between the first time a load is issued and its completion (Unspecified)
system.cpu0.lsq0.loadToUse::max_value            2505                       # Distribution of cycle latency between the first time a load is issued and its completion (Unspecified)
system.cpu0.lsq0.loadToUse::total              586839                       # Distribution of cycle latency between the first time a load is issued and its completion (Unspecified)
system.cpu0.mmu.dtb.rdAccesses                 694957                       # TLB accesses on read requests (Count)
system.cpu0.mmu.dtb.wrAccesses                 250938                       # TLB accesses on write requests (Count)
system.cpu0.mmu.dtb.rdMisses                     3184                       # TLB misses on read requests (Count)
system.cpu0.mmu.dtb.wrMisses                      425                       # TLB misses on write requests (Count)
system.cpu0.mmu.dtb.walker.power_state.pwrStateResidencyTicks::UNDEFINED   6224133000                       # Cumulative time (in ticks) in various power states (Tick)
system.cpu0.mmu.itb.rdAccesses                      0                       # TLB accesses on read requests (Count)
system.cpu0.mmu.itb.wrAccesses                 351989                       # TLB accesses on write requests (Count)
system.cpu0.mmu.itb.rdMisses                        0                       # TLB misses on read requests (Count)
system.cpu0.mmu.itb.wrMisses                     3312                       # TLB misses on write requests (Count)
system.cpu0.mmu.itb.walker.power_state.pwrStateResidencyTicks::UNDEFINED   6224133000                       # Cumulative time (in ticks) in various power states (Tick)
system.cpu0.power_state.pwrStateResidencyTicks::ON   6224133000                       # Cumulative time (in ticks) in various power states (Tick)
system.cpu0.rename.squashCycles                 22815                       # Number of cycles rename is squashing (Cycle)
system.cpu0.rename.idleCycles                  955652                       # Number of cycles rename is idle (Cycle)
system.cpu0.rename.blockCycles                7182000                       # Number of cycles rename is blocking (Cycle)
system.cpu0.rename.serializeStallCycles         22830                       # count of cycles rename stalled for serializing inst (Cycle)
system.cpu0.rename.runCycles                  1113835                       # Number of cycles rename is running (Cycle)
system.cpu0.rename.unblockCycles              1847542                       # Number of cycles rename is unblocking (Cycle)
system.cpu0.rename.renamedInsts               9904589                       # Number of instructions processed by rename (Count)
system.cpu0.rename.ROBFullEvents               112947                       # Number of times rename has blocked due to ROB full (Count)
system.cpu0.rename.IQFullEvents                932741                       # Number of times rename has blocked due to IQ full (Count)
system.cpu0.rename.LQFullEvents                165906                       # Number of times rename has blocked due to LQ full (Count)
system.cpu0.rename.SQFullEvents                543134                       # Number of times rename has blocked due to SQ full (Count)
system.cpu0.rename.fullRegistersEvents           3748                       # Number of times there has been no free registers (Count)
system.cpu0.rename.renamedOperands           22217842                       # Number of destination operands rename has renamed (Count)
system.cpu0.rename.lookups                   42259993                       # Number of register rename lookups that rename has made (Count)
system.cpu0.rename.intLookups                16530747                       # Number of integer rename lookups (Count)
system.cpu0.rename.fpLookups                   191419                       # Number of floating rename lookups (Count)
system.cpu0.rename.committedMaps             19719121                       # Number of HB maps that are committed (Count)
system.cpu0.rename.undoneMaps                 2498721                       # Number of HB maps that are undone due to squashing (Count)
system.cpu0.rename.serializing                    874                       # count of serializing insts renamed (Count)
system.cpu0.rename.tempSerializing                859                       # count of temporary serializing insts renamed (Count)
system.cpu0.rename.skidInsts                  3028610                       # count of insts added to the skid buffer (Count)
system.cpu0.rob.reads                        20291762                       # The number of ROB reads (Count)
system.cpu0.rob.writes                       19703400                       # The number of ROB writes (Count)
system.cpu0.thread_0.numInsts                 5351675                       # Number of Instructions committed (Count)
system.cpu0.thread_0.numOps                   8666927                       # Number of Ops committed (Count)
system.cpu0.thread_0.numMemRefs                     0                       # Number of Memory References (Count)
system.cpu0.workload.numSyscalls                   63                       # Number of system calls (Count)
system.cpu1.numCycles                        11965569                       # Number of cpu cycles simulated (Cycle)
system.cpu1.numWorkItemsStarted                     0                       # Number of work items this cpu started (Count)
system.cpu1.numWorkItemsCompleted                   0                       # Number of work items this cpu completed (Count)
system.cpu1.instsAdded                        9777515                       # Number of instructions added to the IQ (excludes non-spec) (Count)
system.cpu1.nonSpecInstsAdded                    1095                       # Number of non-speculative instructions added to the IQ (Count)
system.cpu1.instsIssued                       9383041                       # Number of instructions issued (Count)
system.cpu1.squashedInstsIssued                  2820                       # Number of squashed instructions issued (Count)
system.cpu1.squashedInstsExamined             1111683                       # Number of squashed instructions iterated over during squash; mainly for profiling (Count)
system.cpu1.squashedOperandsExamined          2386465                       # Number of squashed operands that are examined and possibly removed from graph (Count)
system.cpu1.squashedNonSpecRemoved                242                       # Number of squashed non-spec instructions that were removed (Count)
system.cpu1.numIssuedDist::samples           10801924                       # Number of insts issued each cycle (Count)
system.cpu1.numIssuedDist::mean              0.868645                       # Number of insts issued each cycle (Count)
system.cpu1.numIssuedDist::stdev             1.633205                       # Number of insts issued each cycle (Count)
system.cpu1.numIssuedDist::underflows               0      0.00%      0.00% # Number of insts issued each cycle (Count)
system.cpu1.numIssuedDist::0                  7850048     72.67%     72.67% # Number of insts issued each cycle (Count)
system.cpu1.numIssuedDist::1                   343099      3.18%     75.85% # Number of insts issued each cycle (Count)
system.cpu1.numIssuedDist::2                   769281      7.12%     82.97% # Number of insts issued each cycle (Count)
system.cpu1.numIssuedDist::3                   806082      7.46%     90.43% # Number of insts issued each cycle (Count)
system.cpu1.numIssuedDist::4                   496575      4.60%     95.03% # Number of insts issued each cycle (Count)
system.cpu1.numIssuedDist::5                   276314      2.56%     97.59% # Number of insts issued each cycle (Count)
system.cpu1.numIssuedDist::6                   147788      1.37%     98.96% # Number of insts issued each cycle (Count)
system.cpu1.numIssuedDist::7                    73360      0.68%     99.64% # Number of insts issued each cycle (Count)
system.cpu1.numIssuedDist::8                    39377      0.36%    100.00% # Number of insts issued each cycle (Count)
system.cpu1.numIssuedDist::overflows                0      0.00%    100.00% # Number of insts issued each cycle (Count)
system.cpu1.numIssuedDist::min_value                0                       # Number of insts issued each cycle (Count)
system.cpu1.numIssuedDist::max_value                8                       # Number of insts issued each cycle (Count)
system.cpu1.numIssuedDist::total             10801924                       # Number of insts issued each cycle (Count)
system.cpu1.statFuBusy::No_OpClass                  0      0.00%      0.00% # attempts to use FU when none available (Count)
system.cpu1.statFuBusy::IntAlu                  43555     65.84%     65.84% # attempts to use FU when none available (Count)
system.cpu1.statFuBusy::IntMult                     0      0.00%     65.84% # attempts to use FU when none available (Count)
system.cpu1.statFuBusy::IntDiv                      0      0.00%     65.84% # attempts to use FU when none available (Count)
system.cpu1.statFuBusy::FloatAdd                    0      0.00%     65.84% # attempts to use FU when none available (Count)
system.cpu1.statFuBusy::FloatCmp                    0      0.00%     65.84% # attempts to use FU when none available (Count)
system.cpu1.statFuBusy::FloatCvt                    1      0.00%     65.84% # attempts to use FU when none available (Count)
system.cpu1.statFuBusy::FloatMult                   0      0.00%     65.84% # attempts to use FU when none available (Count)
system.cpu1.statFuBusy::FloatMultAcc                0      0.00%     65.84% # attempts to use FU when none available (Count)
system.cpu1.statFuBusy::FloatDiv                    0      0.00%     65.84% # attempts to use FU when none available (Count)
system.cpu1.statFuBusy::FloatMisc                   0      0.00%     65.84% # attempts to use FU when none available (Count)
system.cpu1.statFuBusy::FloatSqrt                   0      0.00%     65.84% # attempts to use FU when none available (Count)
system.cpu1.statFuBusy::SimdAdd                     0      0.00%     65.84% # attempts to use FU when none available (Count)
system.cpu1.statFuBusy::SimdAddAcc                  0      0.00%     65.84% # attempts to use FU when none available (Count)
system.cpu1.statFuBusy::SimdAlu                   122      0.18%     66.02% # attempts to use FU when none available (Count)
system.cpu1.statFuBusy::SimdCmp                     0      0.00%     66.02% # attempts to use FU when none available (Count)
system.cpu1.statFuBusy::SimdCvt                   175      0.26%     66.29% # attempts to use FU when none available (Count)
system.cpu1.statFuBusy::SimdMisc                    0      0.00%     66.29% # attempts to use FU when none available (Count)
system.cpu1.statFuBusy::SimdMult                    0      0.00%     66.29% # attempts to use FU when none available (Count)
system.cpu1.statFuBusy::SimdMultAcc                 0      0.00%     66.29% # attempts to use FU when none available (Count)
system.cpu1.statFuBusy::SimdShift                 208      0.31%     66.60% # attempts to use FU when none available (Count)
system.cpu1.statFuBusy::SimdShiftAcc                0      0.00%     66.60% # attempts to use FU when none available (Count)
system.cpu1.statFuBusy::SimdDiv                     0      0.00%     66.60% # attempts to use FU when none available (Count)
system.cpu1.statFuBusy::SimdSqrt                    0      0.00%     66.60% # attempts to use FU when none available (Count)
system.cpu1.statFuBusy::SimdFloatAdd                0      0.00%     66.60% # attempts to use FU when none available (Count)
system.cpu1.statFuBusy::SimdFloatAlu                0      0.00%     66.60% # attempts to use FU when none available (Count)
system.cpu1.statFuBusy::SimdFloatCmp                0      0.00%     66.60% # attempts to use FU when none available (Count)
system.cpu1.statFuBusy::SimdFloatCvt                0      0.00%     66.60% # attempts to use FU when none available (Count)
system.cpu1.statFuBusy::SimdFloatDiv                0      0.00%     66.60% # attempts to use FU when none available (Count)
system.cpu1.statFuBusy::SimdFloatMisc               0      0.00%     66.60% # attempts to use FU when none available (Count)
system.cpu1.statFuBusy::SimdFloatMult               0      0.00%     66.60% # attempts to use FU when none available (Count)
system.cpu1.statFuBusy::SimdFloatMultAcc            0      0.00%     66.60% # attempts to use FU when none available (Count)
system.cpu1.statFuBusy::SimdFloatSqrt               0      0.00%     66.60% # attempts to use FU when none available (Count)
system.cpu1.statFuBusy::SimdReduceAdd               0      0.00%     66.60% # attempts to use FU when none available (Count)
system.cpu1.statFuBusy::SimdReduceAlu               0      0.00%     66.60% # attempts to use FU when none available (Count)
system.cpu1.statFuBusy::SimdReduceCmp               0      0.00%     66.60% # attempts to use FU when none available (Count)
system.cpu1.statFuBusy::SimdFloatReduceAdd            0      0.00%     66.60% # attempts to use FU when none available (Count)
system.cpu1.statFuBusy::SimdFloatReduceCmp            0      0.00%     66.60% # attempts to use FU when none available (Count)
system.cpu1.statFuBusy::SimdAes                     0      0.00%     66.60% # attempts to use FU when none available (Count)
system.cpu1.statFuBusy::SimdAesMix                  0      0.00%     66.60% # attempts to use FU when none available (Count)
system.cpu1.statFuBusy::SimdSha1Hash                0      0.00%     66.60% # attempts to use FU when none available (Count)
system.cpu1.statFuBusy::SimdSha1Hash2               0      0.00%     66.60% # attempts to use FU when none available (Count)
system.cpu1.statFuBusy::SimdSha256Hash              0      0.00%     66.60% # attempts to use FU when none available (Count)
system.cpu1.statFuBusy::SimdSha256Hash2             0      0.00%     66.60% # attempts to use FU when none available (Count)
system.cpu1.statFuBusy::SimdShaSigma2               0      0.00%     66.60% # attempts to use FU when none available (Count)
system.cpu1.statFuBusy::SimdShaSigma3               0      0.00%     66.60% # attempts to use FU when none available (Count)
system.cpu1.statFuBusy::SimdPredAlu                 0      0.00%     66.60% # attempts to use FU when none available (Count)
system.cpu1.statFuBusy::MemRead                 12460     18.83%     85.43% # attempts to use FU when none available (Count)
system.cpu1.statFuBusy::MemWrite                 7784     11.77%     97.20% # attempts to use FU when none available (Count)
system.cpu1.statFuBusy::FloatMemRead             1400      2.12%     99.32% # attempts to use FU when none available (Count)
system.cpu1.statFuBusy::FloatMemWrite             452      0.68%    100.00% # attempts to use FU when none available (Count)
system.cpu1.statFuBusy::IprAccess                   0      0.00%    100.00% # attempts to use FU when none available (Count)
system.cpu1.statFuBusy::InstPrefetch                0      0.00%    100.00% # attempts to use FU when none available (Count)
system.cpu1.statIssuedInstType_0::No_OpClass        44059      0.47%      0.47% # Number of instructions issued per FU type, per thread (Count)
system.cpu1.statIssuedInstType_0::IntAlu      8276204     88.20%     88.67% # Number of instructions issued per FU type, per thread (Count)
system.cpu1.statIssuedInstType_0::IntMult           34      0.00%     88.67% # Number of instructions issued per FU type, per thread (Count)
system.cpu1.statIssuedInstType_0::IntDiv        38633      0.41%     89.09% # Number of instructions issued per FU type, per thread (Count)
system.cpu1.statIssuedInstType_0::FloatAdd         4363      0.05%     89.13% # Number of instructions issued per FU type, per thread (Count)
system.cpu1.statIssuedInstType_0::FloatCmp            0      0.00%     89.13% # Number of instructions issued per FU type, per thread (Count)
system.cpu1.statIssuedInstType_0::FloatCvt         1686      0.02%     89.15% # Number of instructions issued per FU type, per thread (Count)
system.cpu1.statIssuedInstType_0::FloatMult            0      0.00%     89.15% # Number of instructions issued per FU type, per thread (Count)
system.cpu1.statIssuedInstType_0::FloatMultAcc            0      0.00%     89.15% # Number of instructions issued per FU type, per thread (Count)
system.cpu1.statIssuedInstType_0::FloatDiv            0      0.00%     89.15% # Number of instructions issued per FU type, per thread (Count)
system.cpu1.statIssuedInstType_0::FloatMisc            0      0.00%     89.15% # Number of instructions issued per FU type, per thread (Count)
system.cpu1.statIssuedInstType_0::FloatSqrt            0      0.00%     89.15% # Number of instructions issued per FU type, per thread (Count)
system.cpu1.statIssuedInstType_0::SimdAdd         8535      0.09%     89.24% # Number of instructions issued per FU type, per thread (Count)
system.cpu1.statIssuedInstType_0::SimdAddAcc            0      0.00%     89.24% # Number of instructions issued per FU type, per thread (Count)
system.cpu1.statIssuedInstType_0::SimdAlu        17274      0.18%     89.43% # Number of instructions issued per FU type, per thread (Count)
system.cpu1.statIssuedInstType_0::SimdCmp            0      0.00%     89.43% # Number of instructions issued per FU type, per thread (Count)
system.cpu1.statIssuedInstType_0::SimdCvt        18935      0.20%     89.63% # Number of instructions issued per FU type, per thread (Count)
system.cpu1.statIssuedInstType_0::SimdMisc         8997      0.10%     89.72% # Number of instructions issued per FU type, per thread (Count)
system.cpu1.statIssuedInstType_0::SimdMult            0      0.00%     89.72% # Number of instructions issued per FU type, per thread (Count)
system.cpu1.statIssuedInstType_0::SimdMultAcc            0      0.00%     89.72% # Number of instructions issued per FU type, per thread (Count)
system.cpu1.statIssuedInstType_0::SimdShift         2968      0.03%     89.75% # Number of instructions issued per FU type, per thread (Count)
system.cpu1.statIssuedInstType_0::SimdShiftAcc            0      0.00%     89.75% # Number of instructions issued per FU type, per thread (Count)
system.cpu1.statIssuedInstType_0::SimdDiv            0      0.00%     89.75% # Number of instructions issued per FU type, per thread (Count)
system.cpu1.statIssuedInstType_0::SimdSqrt            0      0.00%     89.75% # Number of instructions issued per FU type, per thread (Count)
system.cpu1.statIssuedInstType_0::SimdFloatAdd            0      0.00%     89.75% # Number of instructions issued per FU type, per thread (Count)
system.cpu1.statIssuedInstType_0::SimdFloatAlu            0      0.00%     89.75% # Number of instructions issued per FU type, per thread (Count)
system.cpu1.statIssuedInstType_0::SimdFloatCmp            0      0.00%     89.75% # Number of instructions issued per FU type, per thread (Count)
system.cpu1.statIssuedInstType_0::SimdFloatCvt            0      0.00%     89.75% # Number of instructions issued per FU type, per thread (Count)
system.cpu1.statIssuedInstType_0::SimdFloatDiv            0      0.00%     89.75% # Number of instructions issued per FU type, per thread (Count)
system.cpu1.statIssuedInstType_0::SimdFloatMisc            0      0.00%     89.75% # Number of instructions issued per FU type, per thread (Count)
system.cpu1.statIssuedInstType_0::SimdFloatMult            0      0.00%     89.75% # Number of instructions issued per FU type, per thread (Count)
system.cpu1.statIssuedInstType_0::SimdFloatMultAcc            0      0.00%     89.75% # Number of instructions issued per FU type, per thread (Count)
system.cpu1.statIssuedInstType_0::SimdFloatSqrt            0      0.00%     89.75% # Number of instructions issued per FU type, per thread (Count)
system.cpu1.statIssuedInstType_0::SimdReduceAdd            0      0.00%     89.75% # Number of instructions issued per FU type, per thread (Count)
system.cpu1.statIssuedInstType_0::SimdReduceAlu            0      0.00%     89.75% # Number of instructions issued per FU type, per thread (Count)
system.cpu1.statIssuedInstType_0::SimdReduceCmp            0      0.00%     89.75% # Number of instructions issued per FU type, per thread (Count)
system.cpu1.statIssuedInstType_0::SimdFloatReduceAdd            0      0.00%     89.75% # Number of instructions issued per FU type, per thread (Count)
system.cpu1.statIssuedInstType_0::SimdFloatReduceCmp            0      0.00%     89.75% # Number of instructions issued per FU type, per thread (Count)
system.cpu1.statIssuedInstType_0::SimdAes            0      0.00%     89.75% # Number of instructions issued per FU type, per thread (Count)
system.cpu1.statIssuedInstType_0::SimdAesMix            0      0.00%     89.75% # Number of instructions issued per FU type, per thread (Count)
system.cpu1.statIssuedInstType_0::SimdSha1Hash            0      0.00%     89.75% # Number of instructions issued per FU type, per thread (Count)
system.cpu1.statIssuedInstType_0::SimdSha1Hash2            0      0.00%     89.75% # Number of instructions issued per FU type, per thread (Count)
system.cpu1.statIssuedInstType_0::SimdSha256Hash            0      0.00%     89.75% # Number of instructions issued per FU type, per thread (Count)
system.cpu1.statIssuedInstType_0::SimdSha256Hash2            0      0.00%     89.75% # Number of instructions issued per FU type, per thread (Count)
system.cpu1.statIssuedInstType_0::SimdShaSigma2            0      0.00%     89.75% # Number of instructions issued per FU type, per thread (Count)
system.cpu1.statIssuedInstType_0::SimdShaSigma3            0      0.00%     89.75% # Number of instructions issued per FU type, per thread (Count)
system.cpu1.statIssuedInstType_0::SimdPredAlu            0      0.00%     89.75% # Number of instructions issued per FU type, per thread (Count)
system.cpu1.statIssuedInstType_0::MemRead       674498      7.19%     96.94% # Number of instructions issued per FU type, per thread (Count)
system.cpu1.statIssuedInstType_0::MemWrite       234585      2.50%     99.44% # Number of instructions issued per FU type, per thread (Count)
system.cpu1.statIssuedInstType_0::FloatMemRead        33966      0.36%     99.80% # Number of instructions issued per FU type, per thread (Count)
system.cpu1.statIssuedInstType_0::FloatMemWrite        18304      0.20%    100.00% # Number of instructions issued per FU type, per thread (Count)
system.cpu1.statIssuedInstType_0::IprAccess            0      0.00%    100.00% # Number of instructions issued per FU type, per thread (Count)
system.cpu1.statIssuedInstType_0::InstPrefetch            0      0.00%    100.00% # Number of instructions issued per FU type, per thread (Count)
system.cpu1.statIssuedInstType_0::total       9383041                       # Number of instructions issued per FU type, per thread (Count)
system.cpu1.issueRate                        0.784170                       # Inst issue rate ((Count/Cycle))
system.cpu1.fuBusy                              66157                       # FU busy when requested (Count)
system.cpu1.fuBusyRate                       0.007051                       # FU busy rate (busy events/executed inst) ((Count/Count))
system.cpu1.intInstQueueReads                29401968                       # Number of integer instruction queue reads (Count)
system.cpu1.intInstQueueWrites               10712807                       # Number of integer instruction queue writes (Count)
system.cpu1.intInstQueueWakeupAccesses        9205651                       # Number of integer instruction queue wakeup accesses (Count)
system.cpu1.fpInstQueueReads                   235015                       # Number of floating instruction queue reads (Count)
system.cpu1.fpInstQueueWrites                  178737                       # Number of floating instruction queue writes (Count)
system.cpu1.fpInstQueueWakeupAccesses          112555                       # Number of floating instruction queue wakeup accesses (Count)
system.cpu1.vecInstQueueReads                       0                       # Number of vector instruction queue reads (Count)
system.cpu1.vecInstQueueWrites                      0                       # Number of vector instruction queue writes (Count)
system.cpu1.vecInstQueueWakeupAccesses              0                       # Number of vector instruction queue wakeup accesses (Count)
system.cpu1.intAluAccesses                    9286599                       # Number of integer alu accesses (Count)
system.cpu1.fpAluAccesses                      118540                       # Number of floating point alu accesses (Count)
system.cpu1.vecAluAccesses                          0                       # Number of vector alu accesses (Count)
system.cpu1.numInsts                          9348648                       # Number of executed instructions (Count)
system.cpu1.numLoadInsts                       700330                       # Number of load instructions executed (Count)
system.cpu1.numSquashedInsts                    34393                       # Number of squashed instructions skipped in execute (Count)
system.cpu1.numSwp                                  0                       # Number of swp insts executed (Count)
system.cpu1.numNop                                  0                       # Number of nop insts executed (Count)
system.cpu1.numRefs                            951185                       # Number of memory reference insts executed (Count)
system.cpu1.numBranches                        645521                       # Number of branches executed (Count)
[...]
system.ruby.network.ext_out_link_utilization      4216444                       (Unspecified)
system.ruby.network.flit_network_latency |105642940000                       |209458081500                       | 28992836000                       (Unspecified)
system.ruby.network.flit_queueing_latency |  2161707500                       |  1947248000                       |   148698000                       (Unspecified)
system.ruby.network.flits_injected       |      999791     23.71%     23.71% |     2919257     69.24%     92.95% |      297397      7.05%    100.00% (Unspecified)
system.ruby.network.flits_injected::total      4216445                       (Unspecified)
system.ruby.network.flits_received       |      999791     23.71%     23.71% |     2919257     69.24%     92.95% |      297396      7.05%    100.00% (Unspecified)
system.ruby.network.flits_received::total      4216444                       (Unspecified)
system.ruby.network.int_link_utilization     12772903                       (Unspecified)
system.ruby.network.packet_network_latency | 79278890000                       | 69264113000                       | 28992836000                       (Unspecified)
system.ruby.network.packet_queueing_latency |  1766645500                       |   518534000                       |   148698000                       (Unspecified)
system.ruby.network.packets_injected     |      815283     42.29%     42.29% |      815281     42.29%     84.57% |      297397     15.43%    100.00% (Unspecified)
system.ruby.network.packets_injected::total      1927961                       (Unspecified)
system.ruby.network.packets_received     |      815283     42.29%     42.29% |      815281     42.29%     84.57% |      297396     15.43%    100.00% (Unspecified)
system.ruby.network.packets_received::total      1927960                       (Unspecified)
system.ruby.network.routers00.Var_1                 0                       (Unspecified)
system.ruby.network.routers00.Var_2                 0                       (Unspecified)
system.ruby.network.routers00.Var_3                 0                       (Unspecified)
system.ruby.network.routers00.all_counts            0                       (Unspecified)
system.ruby.network.routers00.buffer_reads       755368                       (Unspecified)
system.ruby.network.routers00.buffer_writes       755368                       (Unspecified)
system.ruby.network.routers00.crossbar_activity       755368                       (Unspecified)
system.ruby.network.routers00.detour_counts        53755                       (Unspecified)
system.ruby.network.routers00.regular_var            0                       (Unspecified)
system.ruby.network.routers00.risk_counts            0                       (Unspecified)
system.ruby.network.routers00.sw_input_arbiter_activity       760862                       (Unspecified)
system.ruby.network.routers00.sw_output_arbiter_activity       755368                       (Unspecified)
system.ruby.network.routers01.Var_1                 0                       (Unspecified)
system.ruby.network.routers01.Var_2                 0                       (Unspecified)
system.ruby.network.routers01.Var_3                 0                       (Unspecified)
system.ruby.network.routers01.all_counts            0                       (Unspecified)
system.ruby.network.routers01.buffer_reads      1083618                       (Unspecified)
system.ruby.network.routers01.buffer_writes      1083618                       (Unspecified)
system.ruby.network.routers01.crossbar_activity      1083618                       (Unspecified)
system.ruby.network.routers01.detour_counts        53876                       (Unspecified)
system.ruby.network.routers01.regular_var            0                       (Unspecified)
system.ruby.network.routers01.risk_counts            0                       (Unspecified)
system.ruby.network.routers01.sw_input_arbiter_activity      1096103                       (Unspecified)
system.ruby.network.routers01.sw_output_arbiter_activity      1083618                       (Unspecified)
system.ruby.network.routers02.Var_1                 0                       (Unspecified)
system.ruby.network.routers02.Var_2                 0                       (Unspecified)
system.ruby.network.routers02.Var_3                 0                       (Unspecified)
system.ruby.network.routers02.all_counts            0                       (Unspecified)
system.ruby.network.routers02.buffer_reads      1085711                       (Unspecified)
system.ruby.network.routers02.buffer_writes      1085711                       (Unspecified)
system.ruby.network.routers02.crossbar_activity      1085711                       (Unspecified)
system.ruby.network.routers02.detour_counts        53762                       (Unspecified)
system.ruby.network.routers02.regular_var            0                       (Unspecified)
system.ruby.network.routers02.risk_counts            0                       (Unspecified)
system.ruby.network.routers02.sw_input_arbiter_activity      1097859                       (Unspecified)
system.ruby.network.routers02.sw_output_arbiter_activity      1085711                       (Unspecified)
system.ruby.network.routers03.Var_1                 0                       (Unspecified)
system.ruby.network.routers03.Var_2                 0                       (Unspecified)
system.ruby.network.routers03.Var_3                 0                       (Unspecified)
system.ruby.network.routers03.all_counts            0                       (Unspecified)
system.ruby.network.routers03.buffer_reads       746539                       (Unspecified)
system.ruby.network.routers03.buffer_writes       746539                       (Unspecified)
system.ruby.network.routers03.crossbar_activity       746539                       (Unspecified)
system.ruby.network.routers03.detour_counts        53889                       (Unspecified)
system.ruby.network.routers03.regular_var            0                       (Unspecified)
system.ruby.network.routers03.risk_counts            0                       (Unspecified)
system.ruby.network.routers03.sw_input_arbiter_activity       752060                       (Unspecified)
system.ruby.network.routers03.sw_output_arbiter_activity       746539                       (Unspecified)
system.ruby.network.routers04.Var_1                 0                       (Unspecified)
system.ruby.network.routers04.Var_2                 0                       (Unspecified)
system.ruby.network.routers04.Var_3                 0                       (Unspecified)
system.ruby.network.routers04.all_counts            0                       (Unspecified)
system.ruby.network.routers04.buffer_reads      1054085                       (Unspecified)
system.ruby.network.routers04.buffer_writes      1054085                       (Unspecified)
system.ruby.network.routers04.crossbar_activity      1054085                       (Unspecified)
system.ruby.network.routers04.detour_counts        53858                       (Unspecified)
system.ruby.network.routers04.regular_var            0                       (Unspecified)
system.ruby.network.routers04.risk_counts            0                       (Unspecified)
system.ruby.network.routers04.sw_input_arbiter_activity      1065634                       (Unspecified)
system.ruby.network.routers04.sw_output_arbiter_activity      1054085                       (Unspecified)
system.ruby.network.routers05.Var_1                 0                       (Unspecified)
system.ruby.network.routers05.Var_2                 0                       (Unspecified)
system.ruby.network.routers05.Var_3                 0                       (Unspecified)
system.ruby.network.routers05.all_counts            0                       (Unspecified)
system.ruby.network.routers05.buffer_reads      1378534                       (Unspecified)
system.ruby.network.routers05.buffer_writes      1378534                       (Unspecified)
system.ruby.network.routers05.crossbar_activity      1378534                       (Unspecified)
system.ruby.network.routers05.detour_counts        53883                       (Unspecified)
system.ruby.network.routers05.regular_var            0                       (Unspecified)
system.ruby.network.routers05.risk_counts            0                       (Unspecified)
system.ruby.network.routers05.sw_input_arbiter_activity      1396212                       (Unspecified)
system.ruby.network.routers05.sw_output_arbiter_activity      1378534                       (Unspecified)
system.ruby.network.routers06.Var_1                 0                       (Unspecified)
system.ruby.network.routers06.Var_2                 0                       (Unspecified)
system.ruby.network.routers06.Var_3                 0                       (Unspecified)
system.ruby.network.routers06.all_counts            0                       (Unspecified)
system.ruby.network.routers06.buffer_reads      1377159                       (Unspecified)
system.ruby.network.routers06.buffer_writes      1377159                       (Unspecified)
system.ruby.network.routers06.crossbar_activity      1377159                       (Unspecified)
system.ruby.network.routers06.detour_counts        53838                       (Unspecified)
system.ruby.network.routers06.regular_var            0                       (Unspecified)
system.ruby.network.routers06.risk_counts            0                       (Unspecified)
system.ruby.network.routers06.sw_input_arbiter_activity      1395665                       (Unspecified)
system.ruby.network.routers06.sw_output_arbiter_activity      1377159                       (Unspecified)
system.ruby.network.routers07.Var_1                 0                       (Unspecified)
system.ruby.network.routers07.Var_2                 0                       (Unspecified)
system.ruby.network.routers07.Var_3                 0                       (Unspecified)
system.ruby.network.routers07.all_counts            0                       (Unspecified)
system.ruby.network.routers07.buffer_reads      1042019                       (Unspecified)
system.ruby.network.routers07.buffer_writes      1042019                       (Unspecified)
system.ruby.network.routers07.crossbar_activity      1042019                       (Unspecified)
system.ruby.network.routers07.detour_counts        53945                       (Unspecified)
system.ruby.network.routers07.regular_var            0                       (Unspecified)
system.ruby.network.routers07.risk_counts            0                       (Unspecified)
system.ruby.network.routers07.sw_input_arbiter_activity      1053658                       (Unspecified)
system.ruby.network.routers07.sw_output_arbiter_activity      1042019                       (Unspecified)
system.ruby.network.routers08.Var_1                 0                       (Unspecified)
system.ruby.network.routers08.Var_2                 0                       (Unspecified)
system.ruby.network.routers08.Var_3                 0                       (Unspecified)
system.ruby.network.routers08.all_counts            0                       (Unspecified)
system.ruby.network.routers08.buffer_reads      1052181                       (Unspecified)
system.ruby.network.routers08.buffer_writes      1052181                       (Unspecified)
system.ruby.network.routers08.crossbar_activity      1052181                       (Unspecified)
system.ruby.network.routers08.detour_counts        53871                       (Unspecified)
system.ruby.network.routers08.regular_var            0                       (Unspecified)
system.ruby.network.routers08.risk_counts            0                       (Unspecified)
system.ruby.network.routers08.sw_input_arbiter_activity      1063686                       (Unspecified)
system.ruby.network.routers08.sw_output_arbiter_activity      1052181                       (Unspecified)
system.ruby.network.routers09.Var_1                 0                       (Unspecified)
system.ruby.network.routers09.Var_2                 0                       (Unspecified)
system.ruby.network.routers09.Var_3                 0                       (Unspecified)
system.ruby.network.routers09.all_counts            0                       (Unspecified)
system.ruby.network.routers09.buffer_reads      1380359                       (Unspecified)
system.ruby.network.routers09.buffer_writes      1380359                       (Unspecified)
system.ruby.network.routers09.crossbar_activity      1380359                       (Unspecified)
system.ruby.network.routers09.detour_counts        53805                       (Unspecified)
system.ruby.network.routers09.regular_var            0                       (Unspecified)
system.ruby.network.routers09.risk_counts            0                       (Unspecified)
system.ruby.network.routers09.sw_input_arbiter_activity      1397801                       (Unspecified)
system.ruby.network.routers09.sw_output_arbiter_activity      1380359                       (Unspecified)
system.ruby.network.routers10.Var_1                 0                       (Unspecified)
system.ruby.network.routers10.Var_2                 0                       (Unspecified)
system.ruby.network.routers10.Var_3                 0                       (Unspecified)
system.ruby.network.routers10.all_counts            0                       (Unspecified)
system.ruby.network.routers10.buffer_reads      1377258                       (Unspecified)
system.ruby.network.routers10.buffer_writes      1377258                       (Unspecified)
system.ruby.network.routers10.crossbar_activity      1377258                       (Unspecified)
system.ruby.network.routers10.detour_counts        53770                       (Unspecified)
system.ruby.network.routers10.regular_var            0                       (Unspecified)
system.ruby.network.routers10.risk_counts            0                       (Unspecified)
system.ruby.network.routers10.sw_input_arbiter_activity      1394991                       (Unspecified)
system.ruby.network.routers10.sw_output_arbiter_activity      1377258                       (Unspecified)
system.ruby.network.routers11.Var_1                 0                       (Unspecified)
system.ruby.network.routers11.Var_2                 0                       (Unspecified)
system.ruby.network.routers11.Var_3                 0                       (Unspecified)
system.ruby.network.routers11.all_counts            0                       (Unspecified)
system.ruby.network.routers11.buffer_reads      1038193                       (Unspecified)
system.ruby.network.routers11.buffer_writes      1038193                       (Unspecified)
system.ruby.network.routers11.crossbar_activity      1038193                       (Unspecified)
system.ruby.network.routers11.detour_counts        54024                       (Unspecified)
system.ruby.network.routers11.regular_var            0                       (Unspecified)
system.ruby.network.routers11.risk_counts            0                       (Unspecified)
system.ruby.network.routers11.sw_input_arbiter_activity      1049403                       (Unspecified)
system.ruby.network.routers11.sw_output_arbiter_activity      1038193                       (Unspecified)
system.ruby.network.routers12.Var_1                 0                       (Unspecified)
system.ruby.network.routers12.Var_2                 0                       (Unspecified)
system.ruby.network.routers12.Var_3                 0                       (Unspecified)
system.ruby.network.routers12.all_counts            0                       (Unspecified)
system.ruby.network.routers12.buffer_reads       743355                       (Unspecified)
system.ruby.network.routers12.buffer_writes       743355                       (Unspecified)
system.ruby.network.routers12.crossbar_activity       743355                       (Unspecified)
system.ruby.network.routers12.detour_counts        53879                       (Unspecified)
system.ruby.network.routers12.regular_var            0                       (Unspecified)
system.ruby.network.routers12.risk_counts            0                       (Unspecified)
system.ruby.network.routers12.sw_input_arbiter_activity       748724                       (Unspecified)
system.ruby.network.routers12.sw_output_arbiter_activity       743355                       (Unspecified)
system.ruby.network.routers13.Var_1                 0                       (Unspecified)
system.ruby.network.routers13.Var_2                 0                       (Unspecified)
system.ruby.network.routers13.Var_3                 0                       (Unspecified)
system.ruby.network.routers13.all_counts            0                       (Unspecified)
system.ruby.network.routers13.buffer_reads      1071913                       (Unspecified)
system.ruby.network.routers13.buffer_writes      1071913                       (Unspecified)
system.ruby.network.routers13.crossbar_activity      1071913                       (Unspecified)
system.ruby.network.routers13.detour_counts        53851                       (Unspecified)
system.ruby.network.routers13.regular_var            0                       (Unspecified)
system.ruby.network.routers13.risk_counts            0                       (Unspecified)
system.ruby.network.routers13.sw_input_arbiter_activity      1084133                       (Unspecified)
system.ruby.network.routers13.sw_output_arbiter_activity      1071913                       (Unspecified)
system.ruby.network.routers14.Var_1                 0                       (Unspecified)
system.ruby.network.routers14.Var_2                 0                       (Unspecified)
system.ruby.network.routers14.Var_3                 0                       (Unspecified)
system.ruby.network.routers14.all_counts            0                       (Unspecified)
system.ruby.network.routers14.buffer_reads      1066498                       (Unspecified)
system.ruby.network.routers14.buffer_writes      1066498                       (Unspecified)
system.ruby.network.routers14.crossbar_activity      1066498                       (Unspecified)
system.ruby.network.routers14.detour_counts        53953                       (Unspecified)
system.ruby.network.routers14.regular_var            0                       (Unspecified)
system.ruby.network.routers14.risk_counts            0                       (Unspecified)
system.ruby.network.routers14.sw_input_arbiter_activity      1078626                       (Unspecified)
system.ruby.network.routers14.sw_output_arbiter_activity      1066498                       (Unspecified)
system.ruby.network.routers15.Var_1                 0                       (Unspecified)
system.ruby.network.routers15.Var_2                 0                       (Unspecified)
system.ruby.network.routers15.Var_3                 0                       (Unspecified)
system.ruby.network.routers15.all_counts            0                       (Unspecified)
system.ruby.network.routers15.buffer_reads       736557                       (Unspecified)
system.ruby.network.routers15.buffer_writes       736557                       (Unspecified)
system.ruby.network.routers15.crossbar_activity       736557                       (Unspecified)
system.ruby.network.routers15.detour_counts        53973                       (Unspecified)
system.ruby.network.routers15.regular_var            0                       (Unspecified)
system.ruby.network.routers15.risk_counts            0                       (Unspecified)
system.ruby.network.routers15.sw_input_arbiter_activity       741914                       (Unspecified)
system.ruby.network.routers15.sw_output_arbiter_activity       736557                       (Unspecified)

---------- End Simulation Statistics   ----------
