
---------- Begin Simulation Statistics ----------
simSeconds                                   0.007289                       # Number of seconds simulated (Second)
simTicks                                   7288768000                       # Number of ticks simulated (Tick)
finalTick                                  7288768000                       # Number of ticks from beginning of simulation (restored from checkpoints and never reset) (Tick)
simFreq                                  1000000000000                       # The number of ticks per simulated second ((Tick/Second))
hostSeconds                                   1593.53                       # Real time elapsed on the host (Second)
hostTickRate                                  4573974                       # The number of ticks simulated per host second (ticks/s) ((Tick/Second))
hostMemory                                   11491052                       # Number of bytes of host memory used (Byte)
simInsts                                    132687792                       # Number of instructions simulated (Count)
simOps                                      231069040                       # Number of ops (including micro ops) simulated (Count)
hostInstRate                                    83267                       # Simulator instruction rate (inst/s) ((Count/Second))
hostOpRate                                     145004                       # Simulator op (including micro ops) rate (op/s) ((Count/Second))
system.clk_domain.clock                          1000                       # Clock period in ticks (Tick)
system.cpu0.numCycles                        14491493                       # Number of cpu cycles simulated (Cycle)
system.cpu0.numWorkItemsStarted                     0                       # Number of work items this cpu started (Count)
system.cpu0.numWorkItemsCompleted                   0                       # Number of work items this cpu completed (Count)
system.cpu0.instsAdded                       18145249                       # Number of instructions added to the IQ (excludes non-spec) (Count)
system.cpu0.nonSpecInstsAdded                    1127                       # Number of non-speculative instructions added to the IQ (Count)
system.cpu0.instsIssued                      16814737                       # Number of instructions issued (Count)
system.cpu0.squashedInstsIssued                  5075                       # Number of squashed instructions issued (Count)
system.cpu0.squashedInstsExamined             3704561                       # Number of squashed instructions iterated over during squash; mainly for profiling (Count)
system.cpu0.squashedOperandsExamined          7155924                       # Number of squashed operands that are examined and possibly removed from graph (Count)
system.cpu0.squashedNonSpecRemoved                273                       # Number of squashed non-spec instructions that were removed (Count)
system.cpu0.numIssuedDist::samples           13227373                       # Number of insts issued each cycle (Count)
system.cpu0.numIssuedDist::mean              1.271208                       # Number of insts issued each cycle (Count)
system.cpu0.numIssuedDist::stdev             1.908308                       # Number of insts issued each cycle (Count)
system.cpu0.numIssuedDist::underflows               0      0.00%      0.00% # Number of insts issued each cycle (Count)
system.cpu0.numIssuedDist::0                  8136315     61.51%     61.51% # Number of insts issued each cycle (Count)
system.cpu0.numIssuedDist::1                   671134      5.07%     66.59% # Number of insts issued each cycle (Count)
system.cpu0.numIssuedDist::2                  1194691      9.03%     75.62% # Number of insts issued each cycle (Count)
system.cpu0.numIssuedDist::3                  1192333      9.01%     84.63% # Number of insts issued each cycle (Count)
system.cpu0.numIssuedDist::4                   856120      6.47%     91.10% # Number of insts issued each cycle (Count)
system.cpu0.numIssuedDist::5                   582933      4.41%     95.51% # Number of insts issued each cycle (Count)
system.cpu0.numIssuedDist::6                   388228      2.94%     98.45% # Number of insts issued each cycle (Count)
system.cpu0.numIssuedDist::7                   136243      1.03%     99.48% # Number of insts issued each cycle (Count)
system.cpu0.numIssuedDist::8                    69376      0.52%    100.00% # Number of insts issued each cycle (Count)
system.cpu0.numIssuedDist::overflows                0      0.00%    100.00% # Number of insts issued each cycle (Count)
system.cpu0.numIssuedDist::min_value                0                       # Number of insts issued each cycle (Count)
system.cpu0.numIssuedDist::max_value                8                       # Number of insts issued each cycle (Count)
system.cpu0.numIssuedDist::total             13227373                       # Number of insts issued each cycle (Count)
system.cpu0.statFuBusy::No_OpClass                  0      0.00%      0.00% # attempts to use FU when none available (Count)
system.cpu0.statFuBusy::IntAlu                 117863     83.84%     83.84% # attempts to use FU when none available (Count)
system.cpu0.statFuBusy::IntMult                     0      0.00%     83.84% # attempts to use FU when none available (Count)
system.cpu0.statFuBusy::IntDiv                      0      0.00%     83.84% # attempts to use FU when none available (Count)
system.cpu0.statFuBusy::FloatAdd                    0      0.00%     83.84% # attempts to use FU when none available (Count)
system.cpu0.statFuBusy::FloatCmp                    0      0.00%     83.84% # attempts to use FU when none available (Count)
system.cpu0.statFuBusy::FloatCvt                    2      0.00%     83.84% # attempts to use FU when none available (Count)
system.cpu0.statFuBusy::FloatMult                   0      0.00%     83.84% # attempts to use FU when none available (Count)
system.cpu0.statFuBusy::FloatMultAcc                0      0.00%     83.84% # attempts to use FU when none available (Count)
system.cpu0.statFuBusy::FloatDiv                    0      0.00%     83.84% # attempts to use FU when none available (Count)
system.cpu0.statFuBusy::FloatMisc                   0      0.00%     83.84% # attempts to use FU when none available (Count)
system.cpu0.statFuBusy::FloatSqrt                   0      0.00%     83.84% # attempts to use FU when none available (Count)
system.cpu0.statFuBusy::SimdAdd                     0      0.00%     83.84% # attempts to use FU when none available (Count)
system.cpu0.statFuBusy::SimdAddAcc                  0      0.00%     83.84% # attempts to use FU when none available (Count)
system.cpu0.statFuBusy::SimdAlu                   118      0.08%     83.92% # attempts to use FU when none available (Count)
system.cpu0.statFuBusy::SimdCmp                     0      0.00%     83.92% # attempts to use FU when none available (Count)
system.cpu0.statFuBusy::SimdCvt                   139      0.10%     84.02% # attempts to use FU when none available (Count)
system.cpu0.statFuBusy::SimdMisc                    0      0.00%     84.02% # attempts to use FU when none available (Count)
system.cpu0.statFuBusy::SimdMult                    0      0.00%     84.02% # attempts to use FU when none available (Count)
system.cpu0.statFuBusy::SimdMultAcc                 0      0.00%     84.02% # attempts to use FU when none available (Count)
system.cpu0.statFuBusy::SimdShift                 129      0.09%     84.11% # attempts to use FU when none available (Count)
system.cpu0.statFuBusy::SimdShiftAcc                0      0.00%     84.11% # attempts to use FU when none available (Count)
system.cpu0.statFuBusy::SimdDiv                     0      0.00%     84.11% # attempts to use FU when none available (Count)
system.cpu0.statFuBusy::SimdSqrt                    0      0.00%     84.11% # attempts to use FU when none available (Count)
system.cpu0.statFuBusy::SimdFloatAdd                0      0.00%     84.11% # attempts to use FU when none available (Count)
system.cpu0.statFuBusy::SimdFloatAlu                0      0.00%     84.11% # attempts to use FU when none available (Count)
system.cpu0.statFuBusy::SimdFloatCmp                0      0.00%     84.11% # attempts to use FU when none available (Count)
system.cpu0.statFuBusy::SimdFloatCvt                0      0.00%     84.11% # attempts to use FU when none available (Count)
system.cpu0.statFuBusy::SimdFloatDiv                0      0.00%     84.11% # attempts to use FU when none available (Count)
system.cpu0.statFuBusy::SimdFloatMisc               0      0.00%     84.11% # attempts to use FU when none available (Count)
system.cpu0.statFuBusy::SimdFloatMult               0      0.00%     84.11% # attempts to use FU when none available (Count)
system.cpu0.statFuBusy::SimdFloatMultAcc            0      0.00%     84.11% # attempts to use FU when none available (Count)
system.cpu0.statFuBusy::SimdFloatSqrt               0      0.00%     84.11% # attempts to use FU when none available (Count)
system.cpu0.statFuBusy::SimdReduceAdd               0      0.00%     84.11% # attempts to use FU when none available (Count)
system.cpu0.statFuBusy::SimdReduceAlu               0      0.00%     84.11% # attempts to use FU when none available (Count)
system.cpu0.statFuBusy::SimdReduceCmp               0      0.00%     84.11% # attempts to use FU when none available (Count)
system.cpu0.statFuBusy::SimdFloatReduceAdd            0      0.00%     84.11% # attempts to use FU when none available (Count)
system.cpu0.statFuBusy::SimdFloatReduceCmp            0      0.00%     84.11% # attempts to use FU when none available (Count)
system.cpu0.statFuBusy::SimdAes                     0      0.00%     84.11% # attempts to use FU when none available (Count)
system.cpu0.statFuBusy::SimdAesMix                  0      0.00%     84.11% # attempts to use FU when none available (Count)
system.cpu0.statFuBusy::SimdSha1Hash                0      0.00%     84.11% # attempts to use FU when none available (Count)
system.cpu0.statFuBusy::SimdSha1Hash2               0      0.00%     84.11% # attempts to use FU when none available (Count)
system.cpu0.statFuBusy::SimdSha256Hash              0      0.00%     84.11% # attempts to use FU when none available (Count)
system.cpu0.statFuBusy::SimdSha256Hash2             0      0.00%     84.11% # attempts to use FU when none available (Count)
system.cpu0.statFuBusy::SimdShaSigma2               0      0.00%     84.11% # attempts to use FU when none available (Count)
system.cpu0.statFuBusy::SimdShaSigma3               0      0.00%     84.11% # attempts to use FU when none available (Count)
system.cpu0.statFuBusy::SimdPredAlu                 0      0.00%     84.11% # attempts to use FU when none available (Count)
system.cpu0.statFuBusy::MemRead                 12071      8.59%     92.70% # attempts to use FU when none available (Count)
system.cpu0.statFuBusy::MemWrite                 7916      5.63%     98.33% # attempts to use FU when none available (Count)
system.cpu0.statFuBusy::FloatMemRead             1725      1.23%     99.56% # attempts to use FU when none available (Count)
system.cpu0.statFuBusy::FloatMemWrite             620      0.44%    100.00% # attempts to use FU when none available (Count)
system.cpu0.statFuBusy::IprAccess                   0      0.00%    100.00% # attempts to use FU when none available (Count)
system.cpu0.statFuBusy::InstPrefetch                0      0.00%    100.00% # attempts to use FU when none available (Count)
system.cpu0.statIssuedInstType_0::No_OpClass        60207      0.36%      0.36% # Number of instructions issued per FU type, per thread (Count)
system.cpu0.statIssuedInstType_0::IntAlu     14590968     86.77%     87.13% # Number of instructions issued per FU type, per thread (Count)
system.cpu0.statIssuedInstType_0::IntMult           35      0.00%     87.13% # Number of instructions issued per FU type, per thread (Count)
system.cpu0.statIssuedInstType_0::IntDiv        38440      0.23%     87.36% # Number of instructions issued per FU type, per thread (Count)
system.cpu0.statIssuedInstType_0::FloatAdd         6399      0.04%     87.40% # Number of instructions issued per FU type, per thread (Count)
system.cpu0.statIssuedInstType_0::FloatCmp            0      0.00%     87.40% # Number of instructions issued per FU type, per thread (Count)
system.cpu0.statIssuedInstType_0::FloatCvt         1718      0.01%     87.41% # Number of instructions issued per FU type, per thread (Count)
system.cpu0.statIssuedInstType_0::FloatMult            0      0.00%     87.41% # Number of instructions issued per FU type, per thread (Count)
system.cpu0.statIssuedInstType_0::FloatMultAcc            0      0.00%     87.41% # Number of instructions issued per FU type, per thread (Count)
system.cpu0.statIssuedInstType_0::FloatDiv            0      0.00%     87.41% # Number of instructions issued per FU type, per thread (Count)
system.cpu0.statIssuedInstType_0::FloatMisc            0      0.00%     87.41% # Number of instructions issued per FU type, per thread (Count)
system.cpu0.statIssuedInstType_0::FloatSqrt            0      0.00%     87.41% # Number of instructions issued per FU type, per thread (Count)
system.cpu0.statIssuedInstType_0::SimdAdd         8435      0.05%     87.46% # Number of instructions issued per FU type, per thread (Count)
system.cpu0.statIssuedInstType_0::SimdAddAcc            0      0.00%     87.46% # Number of instructions issued per FU type, per thread (Count)
system.cpu0.statIssuedInstType_0::SimdAlu        25334      0.15%     87.61% # Number of instructions issued per FU type, per thread (Count)
system.cpu0.statIssuedInstType_0::SimdCmp            0      0.00%     87.61% # Number of instructions issued per FU type, per thread (Count)
system.cpu0.statIssuedInstType_0::SimdCvt        26918      0.16%     87.77% # Number of instructions issued per FU type, per thread (Count)
system.cpu0.statIssuedInstType_0::SimdMisc        27331      0.16%     87.93% # Number of instructions issued per FU type, per thread (Count)
system.cpu0.statIssuedInstType_0::SimdMult            0      0.00%     87.93% # Number of instructions issued per FU type, per thread (Count)
system.cpu0.statIssuedInstType_0::SimdMultAcc            0      0.00%     87.93% # Number of instructions issued per FU type, per thread (Count)
system.cpu0.statIssuedInstType_0::SimdShift         2514      0.01%     87.95% # Number of instructions issued per FU type, per thread (Count)
system.cpu0.statIssuedInstType_0::SimdShiftAcc            0      0.00%     87.95% # Number of instructions issued per FU type, per thread (Count)
system.cpu0.statIssuedInstType_0::SimdDiv            0      0.00%     87.95% # Number of instructions issued per FU type, per thread (Count)
system.cpu0.statIssuedInstType_0::SimdSqrt            0      0.00%     87.95% # Number of instructions issued per FU type, per thread (Count)
system.cpu0.statIssuedInstType_0::SimdFloatAdd            0      0.00%     87.95% # Number of instructions issued per FU type, per thread (Count)
system.cpu0.statIssuedInstType_0::SimdFloatAlu            0      0.00%     87.95% # Number of instructions issued per FU type, per thread (Count)
system.cpu0.statIssuedInstType_0::SimdFloatCmp            0      0.00%     87.95% # Number of instructions issued per FU type, per thread (Count)
system.cpu0.statIssuedInstType_0::SimdFloatCvt            0      0.00%     87.95% # Number of instructions issued per FU type, per thread (Count)
system.cpu0.statIssuedInstType_0::SimdFloatDiv            0      0.00%     87.95% # Number of instructions issued per FU type, per thread (Count)
system.cpu0.statIssuedInstType_0::SimdFloatMisc            0      0.00%     87.95% # Number of instructions issued per FU type, per thread (Count)
system.cpu0.statIssuedInstType_0::SimdFloatMult            0      0.00%     87.95% # Number of instructions issued per FU type, per thread (Count)
system.cpu0.statIssuedInstType_0::SimdFloatMultAcc            0      0.00%     87.95% # Number of instructions issued per FU type, per thread (Count)
system.cpu0.statIssuedInstType_0::SimdFloatSqrt            0      0.00%     87.95% # Number of instructions issued per FU type, per thread (Count)
system.cpu0.statIssuedInstType_0::SimdReduceAdd            0      0.00%     87.95% # Number of instructions issued per FU type, per thread (Count)
system.cpu0.statIssuedInstType_0::SimdReduceAlu            0      0.00%     87.95% # Number of instructions issued per FU type, per thread (Count)
system.cpu0.statIssuedInstType_0::SimdReduceCmp            0      0.00%     87.95% # Number of instructions issued per FU type, per thread (Count)
system.cpu0.statIssuedInstType_0::SimdFloatReduceAdd            0      0.00%     87.95% # Number of instructions issued per FU type, per thread (Count)
system.cpu0.statIssuedInstType_0::SimdFloatReduceCmp            0      0.00%     87.95% # Number of instructions issued per FU type, per thread (Count)
system.cpu0.statIssuedInstType_0::SimdAes            0      0.00%     87.95% # Number of instructions issued per FU type, per thread (Count)
system.cpu0.statIssuedInstType_0::SimdAesMix            0      0.00%     87.95% # Number of instructions issued per FU type, per thread (Count)
system.cpu0.statIssuedInstType_0::SimdSha1Hash            0      0.00%     87.95% # Number of instructions issued per FU type, per thread (Count)
system.cpu0.statIssuedInstType_0::SimdSha1Hash2            0      0.00%     87.95% # Number of instructions issued per FU type, per thread (Count)
system.cpu0.statIssuedInstType_0::SimdSha256Hash            0      0.00%     87.95% # Number of instructions issued per FU type, per thread (Count)
system.cpu0.statIssuedInstType_0::SimdSha256Hash2            0      0.00%     87.95% # Number of instructions issued per FU type, per thread (Count)
system.cpu0.statIssuedInstType_0::SimdShaSigma2            0      0.00%     87.95% # Number of instructions issued per FU type, per thread (Count)
system.cpu0.statIssuedInstType_0::SimdShaSigma3            0      0.00%     87.95% # Number of instructions issued per FU type, per thread (Count)
system.cpu0.statIssuedInstType_0::SimdPredAlu            0      0.00%     87.95% # Number of instructions issued per FU type, per thread (Count)
system.cpu0.statIssuedInstType_0::MemRead      1315111      7.82%     95.77% # Number of instructions issued per FU type, per thread (Count)
system.cpu0.statIssuedInstType_0::MemWrite       646720      3.85%     99.62% # Number of instructions issued per FU type, per thread (Count)
system.cpu0.statIssuedInstType_0::FloatMemRead        42460      0.25%     99.87% # Number of instructions issued per FU type, per thread (Count)
system.cpu0.statIssuedInstType_0::FloatMemWrite        22147      0.13%    100.00% # Number of instructions issued per FU type, per thread (Count)
system.cpu0.statIssuedInstType_0::IprAccess            0      0.00%    100.00% # Number of instructions issued per FU type, per thread (Count)
system.cpu0.statIssuedInstType_0::InstPrefetch            0      0.00%    100.00% # Number of instructions issued per FU type, per thread (Count)
system.cpu0.statIssuedInstType_0::total      16814737                       # Number of instructions issued per FU type, per thread (Count)
system.cpu0.issueRate                        1.160318                       # Inst issue rate ((Count/Cycle))
system.cpu0.fuBusy                             140583                       # FU busy when requested (Count)
system.cpu0.fuBusyRate                       0.008361                       # FU busy rate (busy events/executed inst) ((Count/Count))
system.cpu0.intInstQueueReads                46658347                       # Number of integer instruction queue reads (Count)
system.cpu0.intInstQueueWrites               21630117                       # Number of integer instruction queue writes (Count)
system.cpu0.intInstQueueWakeupAccesses       16421067                       # Number of integer instruction queue wakeup accesses (Count)
system.cpu0.fpInstQueueReads                   344158                       # Number of floating instruction queue reads (Count)
system.cpu0.fpInstQueueWrites                  232873                       # Number of floating instruction queue writes (Count)
system.cpu0.fpInstQueueWakeupAccesses          165609                       # Number of floating instruction queue wakeup accesses (Count)
system.cpu0.vecInstQueueReads                       0                       # Number of vector instruction queue reads (Count)
system.cpu0.vecInstQueueWrites                      0                       # Number of vector instruction queue writes (Count)
system.cpu0.vecInstQueueWakeupAccesses              0                       # Number of vector instruction queue wakeup accesses (Count)
system.cpu0.intAluAccesses                   16721830                       # Number of integer alu accesses (Count)
system.cpu0.fpAluAccesses                      173283                       # Number of floating point alu accesses (Count)
system.cpu0.vecAluAccesses                          0                       # Number of vector alu accesses (Count)
system.cpu0.numInsts                         16637327                       # Number of executed instructions (Count)
system.cpu0.numLoadInsts                      1331391                       # Number of load instructions executed (Count)
system.cpu0.numSquashedInsts                   177410                       # Number of squashed instructions skipped in execute (Count)
system.cpu0.numSwp                                  0                       # Number of swp insts executed (Count)
system.cpu0.numNop                                  0                       # Number of nop insts executed (Count)
system.cpu0.numRefs                           1994767                       # Number of memory reference insts executed (Count)
system.cpu0.numBranches                       1435641                       # Number of branches executed (Count)
system.cpu0.numStoreInsts                      663376                       # Number of stores executed (Count)
system.cpu0.numRate                          1.148075                       # Inst execution rate ((Count/Cycle))
system.cpu0.timesIdled                           2553                       # Number of times that the entire CPU went into an idle state and unscheduled itself (Count)
system.cpu0.idleCycles                        1264120                       # Total number of cycles that the CPU has spent unscheduled due to idling (Cycle)
system.cpu0.committedInsts                    8292987                       # Number of Instructions Simulated (Count)
system.cpu0.committedOps                     14441815                       # Number of Ops (including micro ops) Simulated (Count)
system.cpu0.cpi                              1.747439                       # CPI: Cycles Per Instruction ((Cycle/Count))
system.cpu0.totalCpi                         1.747439                       # CPI: Total CPI of All Threads ((Cycle/Count))
system.cpu0.ipc                              0.572266                       # IPC: Instructions Per Cycle ((Count/Cycle))
system.cpu0.totalIpc                         0.572266                       # IPC: Total IPC of All Threads ((Count/Cycle))
system.cpu0.intRegfileReads                  24818977                       # Number of integer regfile reads (Count)
system.cpu0.intRegfileWrites                 12851443                       # Number of integer regfile writes (Count)
system.cpu0.fpRegfileReads                     242829                       # Number of floating regfile reads (Count)
system.cpu0.fpRegfileWrites                    130178                       # Number of floating regfile writes (Count)
system.cpu0.ccRegfileReads                   14078836                       # number of cc regfile reads (Count)
system.cpu0.ccRegfileWrites                   7943924                       # number of cc regfile writes (Count)
system.cpu0.miscRegfileReads                  5027638                       # number of misc regfile reads (Count)
system.cpu0.miscRegfileWrites                     846                       # number of misc regfile writes (Count)
system.cpu0.MemDepUnit__0.insertedLoads       1584252                       # Number of loads inserted to the mem dependence unit. (Count)
system.cpu0.MemDepUnit__0.insertedStores       836017                       # Number of stores inserted to the mem dependence unit. (Count)
system.cpu0.MemDepUnit__0.conflictingLoads       520355                       # Number of conflicting loads. (Count)
system.cpu0.MemDepUnit__0.conflictingStores       407350                       # Number of conflicting stores. (Count)
system.cpu0.MemDepUnit__1.insertedLoads             0                       # Number of loads inserted to the mem dependence unit. (Count)
system.cpu0.MemDepUnit__1.insertedStores            0                       # Number of stores inserted to the mem dependence unit. (Count)
system.cpu0.MemDepUnit__1.conflictingLoads            0                       # Number of conflicting loads. (Count)
system.cpu0.MemDepUnit__1.conflictingStores            0                       # Number of conflicting stores. (Count)
system.cpu0.MemDepUnit__2.insertedLoads             0                       # Number of loads inserted to the mem dependence unit. (Count)
system.cpu0.MemDepUnit__2.insertedStores            0                       # Number of stores inserted to the mem dependence unit. (Count)
system.cpu0.MemDepUnit__2.conflictingLoads            0                       # Number of conflicting loads. (Count)
system.cpu0.MemDepUnit__2.conflictingStores            0                       # Number of conflicting stores. (Count)
system.cpu0.MemDepUnit__3.insertedLoads             0                       # Number of loads inserted to the mem dependence unit. (Count)
system.cpu0.MemDepUnit__3.insertedStores            0                       # Number of stores inserted to the mem dependence unit. (Count)
system.cpu0.MemDepUnit__3.conflictingLoads            0                       # Number of conflicting loads. (Count)
system.cpu0.MemDepUnit__3.conflictingStores            0                       # Number of conflicting stores. (Count)
system.cpu0.branchPred.lookups                1801712                       # Number of BP lookups (Count)
system.cpu0.branchPred.condPredicted          1670621                       # Number of conditional branches predicted (Count)
system.cpu0.branchPred.condIncorrect            81223                       # Number of conditional branches incorrect (Count)
system.cpu0.branchPred.BTBLookups             1061619                       # Number of BTB lookups (Count)
system.cpu0.branchPred.BTBUpdates               51117                       # Number of BTB updates (Count)
system.cpu0.branchPred.BTBHits                1056020                       # Number of BTB hits (Count)
system.cpu0.branchPred.BTBHitRatio           0.994726                       # BTB Hit Ratio (Ratio)
system.cpu0.branchPred.RASUsed                  25035                       # Number of times the RAS was used to get a target. (Count)
system.cpu0.branchPred.RASIncorrect                 7                       # Number of incorrect RAS predictions. (Count)
system.cpu0.branchPred.indirectLookups          20452                       # Number of indirect predictor lookups. (Count)
system.cpu0.branchPred.indirectHits             15542                       # Number of indirect target hits. (Count)
system.cpu0.branchPred.indirectMisses            4910                       # Number of indirect misses. (Count)
system.cpu0.branchPred.indirectMispredicted         1284                       # Number of mispredicted indirect branches. (Count)
system.cpu0.commit.commitSquashedInsts        3693657                       # The number of squashed insts skipped by commit (Count)
system.cpu0.commit.commitNonSpecStalls            854                       # The number of times commit has been forced to stall to communicate backwards (Count)
system.cpu0.commit.branchMispredicts            69960                       # The number of times a branch was mispredicted (Count)
system.cpu0.commit.numCommittedDist::samples     12697775                       # Number of insts commited each cycle (Count)
system.cpu0.commit.numCommittedDist::mean     1.137350                       # Number of insts commited each cycle (Count)
system.cpu0.commit.numCommittedDist::stdev     2.228222                       # Number of insts commited each cycle (Count)
system.cpu0.commit.numCommittedDist::underflows            0      0.00%      0.00% # Number of insts commited each cycle (Count)
system.cpu0.commit.numCommittedDist::0        8388618     66.06%     66.06% # Number of insts commited each cycle (Count)
system.cpu0.commit.numCommittedDist::1        1748867     13.77%     79.84% # Number of insts commited each cycle (Count)
system.cpu0.commit.numCommittedDist::2         656664      5.17%     85.01% # Number of insts commited each cycle (Count)
system.cpu0.commit.numCommittedDist::3         322778      2.54%     87.55% # Number of insts commited each cycle (Count)
system.cpu0.commit.numCommittedDist::4         128934      1.02%     88.57% # Number of insts commited each cycle (Count)
system.cpu0.commit.numCommittedDist::5         446696      3.52%     92.08% # Number of insts commited each cycle (Count)
system.cpu0.commit.numCommittedDist::6         159892      1.26%     93.34% # Number of insts commited each cycle (Count)
system.cpu0.commit.numCommittedDist::7          59890      0.47%     93.81% # Number of insts commited each cycle (Count)
system.cpu0.commit.numCommittedDist::8         785436      6.19%    100.00% # Number of insts commited each cycle (Count)
system.cpu0.commit.numCommittedDist::overflows            0      0.00%    100.00% # Number of insts commited each cycle (Count)
system.cpu0.commit.numCommittedDist::min_value            0                       # Number of insts commited each cycle (Count)
system.cpu0.commit.numCommittedDist::max_value            8                       # Number of insts commited each cycle (Count)
system.cpu0.commit.numCommittedDist::total     12697775                       # Number of insts commited each cycle (Count)
system.cpu0.commit.instsCommitted             8292987                       # Number of instructions committed (Count)
system.cpu0.commit.opsCommitted              14441815                       # Number of ops (including micro ops) committed (Count)
system.cpu0.commit.memRefs                    1778023                       # Number of memory references committed (Count)
system.cpu0.commit.loads                      1169914                       # Number of loads committed (Count)
system.cpu0.commit.amos                             0                       # Number of atomic instructions committed (Count)
system.cpu0.commit.membars                          2                       # Number of memory barriers committed (Count)
system.cpu0.commit.branches                   1243416                       # Number of branches committed (Count)
system.cpu0.commit.vectorInstructions               0                       # Number of committed Vector instructions. (Count)
system.cpu0.commit.floating                    134621                       # Number of committed floating point instructions. (Count)
system.cpu0.commit.integer                   14305442                       # Number of committed integer instructions. (Count)
system.cpu0.commit.functionCalls                19881                       # Number of function calls committed. (Count)
system.cpu0.commit.committedInstType_0::No_OpClass        45903      0.32%      0.32% # Class of committed instruction (Count)
system.cpu0.commit.committedInstType_0::IntAlu     12499191     86.55%     86.87% # Class of committed instruction (Count)
system.cpu0.commit.committedInstType_0::IntMult           29      0.00%     86.87% # Class of committed instruction (Count)
system.cpu0.commit.committedInstType_0::IntDiv        36053      0.25%     87.12% # Class of committed instruction (Count)
system.cpu0.commit.committedInstType_0::FloatAdd         5256      0.04%     87.15% # Class of committed instruction (Count)
system.cpu0.commit.committedInstType_0::FloatCmp            0      0.00%     87.15% # Class of committed instruction (Count)
system.cpu0.commit.committedInstType_0::FloatCvt         1504      0.01%     87.16% # Class of committed instruction (Count)
system.cpu0.commit.committedInstType_0::FloatMult            0      0.00%     87.16% # Class of committed instruction (Count)
system.cpu0.commit.committedInstType_0::FloatMultAcc            0      0.00%     87.16% # Class of committed instruction (Count)
system.cpu0.commit.committedInstType_0::FloatDiv            0      0.00%     87.16% # Class of committed instruction (Count)
system.cpu0.commit.committedInstType_0::FloatMisc            0      0.00%     87.16% # Class of committed instruction (Count)
system.cpu0.commit.committedInstType_0::FloatSqrt            0      0.00%     87.16% # Class of committed instruction (Count)
system.cpu0.commit.committedInstType_0::SimdAdd         6810      0.05%     87.21% # Class of committed instruction (Count)
system.cpu0.commit.committedInstType_0::SimdAddAcc            0      0.00%     87.21% # Class of committed instruction (Count)
system.cpu0.commit.committedInstType_0::SimdAlu        20482      0.14%     87.35% # Class of committed instruction (Count)
system.cpu0.commit.committedInstType_0::SimdCmp            0      0.00%     87.35% # Class of committed instruction (Count)
system.cpu0.commit.committedInstType_0::SimdCvt        21510      0.15%     87.50% # Class of committed instruction (Count)
system.cpu0.commit.committedInstType_0::SimdMisc        25702      0.18%     87.68% # Class of committed instruction (Count)
system.cpu0.commit.committedInstType_0::SimdMult            0      0.00%     87.68% # Class of committed instruction (Count)
system.cpu0.commit.committedInstType_0::SimdMultAcc            0      0.00%     87.68% # Class of committed instruction (Count)
system.cpu0.commit.committedInstType_0::SimdShift         1352      0.01%     87.69% # Class of committed instruction (Count)
system.cpu0.commit.committedInstType_0::SimdShiftAcc            0      0.00%     87.69% # Class of committed instruction (Count)
system.cpu0.commit.committedInstType_0::SimdDiv            0      0.00%     87.69% # Class of committed instruction (Count)
system.cpu0.commit.committedInstType_0::SimdSqrt            0      0.00%     87.69% # Class of committed instruction (Count)
system.cpu0.commit.committedInstType_0::SimdFloatAdd            0      0.00%     87.69% # Class of committed instruction (Count)
system.cpu0.commit.committedInstType_0::SimdFloatAlu            0      0.00%     87.69% # Class of committed instruction (Count)
system.cpu0.commit.committedInstType_0::SimdFloatCmp            0      0.00%     87.69% # Class of committed instruction (Count)
system.cpu0.commit.committedInstType_0::SimdFloatCvt            0      0.00%     87.69% # Class of committed instruction (Count)
system.cpu0.commit.committedInstType_0::SimdFloatDiv            0      0.00%     87.69% # Class of committed instruction (Count)
system.cpu0.commit.committedInstType_0::SimdFloatMisc            0      0.00%     87.69% # Class of committed instruction (Count)
system.cpu0.commit.committedInstType_0::SimdFloatMult            0      0.00%     87.69% # Class of committed instruction (Count)
system.cpu0.commit.committedInstType_0::SimdFloatMultAcc            0      0.00%     87.69% # Class of committed instruction (Count)
system.cpu0.commit.committedInstType_0::SimdFloatSqrt            0      0.00%     87.69% # Class of committed instruction (Count)
system.cpu0.commit.committedInstType_0::SimdReduceAdd            0      0.00%     87.69% # Class of committed instruction (Count)
system.cpu0.commit.committedInstType_0::SimdReduceAlu            0      0.00%     87.69% # Class of committed instruction (Count)
system.cpu0.commit.committedInstType_0::SimdReduceCmp            0      0.00%     87.69% # Class of committed instruction (Count)
system.cpu0.commit.committedInstType_0::SimdFloatReduceAdd            0      0.00%     87.69% # Class of committed instruction (Count)
system.cpu0.commit.committedInstType_0::SimdFloatReduceCmp            0      0.00%     87.69% # Class of committed instruction (Count)
system.cpu0.commit.committedInstType_0::SimdAes            0      0.00%     87.69% # Class of committed instruction (Count)
system.cpu0.commit.committedInstType_0::SimdAesMix            0      0.00%     87.69% # Class of committed instruction (Count)
system.cpu0.commit.committedInstType_0::SimdSha1Hash            0      0.00%     87.69% # Class of committed instruction (Count)
system.cpu0.commit.committedInstType_0::SimdSha1Hash2            0      0.00%     87.69% # Class of committed instruction (Count)
system.cpu0.commit.committedInstType_0::SimdSha256Hash            0      0.00%     87.69% # Class of committed instruction (Count)
system.cpu0.commit.committedInstType_0::SimdSha256Hash2            0      0.00%     87.69% # Class of committed instruction (Count)
system.cpu0.commit.committedInstType_0::SimdShaSigma2            0      0.00%     87.69% # Class of committed instruction (Count)
system.cpu0.commit.committedInstType_0::SimdShaSigma3            0      0.00%     87.69% # Class of committed instruction (Count)
system.cpu0.commit.committedInstType_0::SimdPredAlu            0      0.00%     87.69% # Class of committed instruction (Count)
system.cpu0.commit.committedInstType_0::MemRead      1141779      7.91%     95.59% # Class of committed instruction (Count)
system.cpu0.commit.committedInstType_0::MemWrite       591285      4.09%     99.69% # Class of committed instruction (Count)
system.cpu0.commit.committedInstType_0::FloatMemRead        28135      0.19%     99.88% # Class of committed instruction (Count)
system.cpu0.commit.committedInstType_0::FloatMemWrite        16824      0.12%    100.00% # Class of committed instruction (Count)
system.cpu0.commit.committedInstType_0::IprAccess            0      0.00%    100.00% # Class of committed instruction (Count)
system.cpu0.commit.committedInstType_0::InstPrefetch            0      0.00%    100.00% # Class of committed instruction (Count)
system.cpu0.commit.committedInstType_0::total     14441815                       # Class of committed instruction (Count)
system.cpu0.commit.commitEligibleSamples       785436                       # number cycles where commit BW limit reached (Cycle)
system.cpu0.decode.idleCycles                 1468293                       # Number of cycles decode is idle (Cycle)
system.cpu0.decode.blockedCycles              8823781                       # Number of cycles decode is blocked (Cycle)
system.cpu0.decode.runCycles                  2084856                       # Number of cycles decode is running (Cycle)
system.cpu0.decode.unblockCycles               768578                       # Number of cycles decode is unblocking (Cycle)
system.cpu0.decode.squashCycles                 81865                       # Number of cycles decode is squashing (Cycle)
system.cpu0.decode.branchResolved             1019234                       # Number of times decode resolved a branch (Count)
system.cpu0.decode.branchMispred                14049                       # Number of times decode detected a branch misprediction (Count)
system.cpu0.decode.decodedInsts              19039440                       # Number of instructions handled by decode (Count)
system.cpu0.decode.squashedInsts                27470                       # Number of squashed instructions handled by decode (Count)
system.cpu0.fetch.icacheStallCycles           1829786                       # Number of cycles fetch is stalled on an Icache miss (Cycle)
system.cpu0.fetch.insts                      11139066                       # Number of instructions fetch has processed (Count)
system.cpu0.fetch.branches                    1801712                       # Number of branches that fetch encountered (Count)
system.cpu0.fetch.predictedBranches           1096597                       # Number of branches that fetch has predicted taken (Count)
system.cpu0.fetch.cycles                     11078675                       # Number of cycles fetch has run and was not squashing or blocked (Cycle)
system.cpu0.fetch.squashCycles                 190946                       # Number of cycles fetch has spent squashing (Cycle)
system.cpu0.fetch.miscStallCycles               12495                       # Number of cycles fetch has spent waiting on interrupts, or bad addresses, or out of MSHRs (Cycle)
system.cpu0.fetch.pendingTrapStallCycles        15620                       # Number of stall cycles due to pending traps (Cycle)
system.cpu0.fetch.icacheWaitRetryStallCycles       195324                       # Number of stall cycles due to full MSHR (Cycle)
system.cpu0.fetch.cacheLines                  1588082                       # Number of cache lines fetched (Count)
system.cpu0.fetch.icacheSquashes                22022                       # Number of outstanding Icache misses that were squashed (Count)
system.cpu0.fetch.nisnDist::samples          13227373                       # Number of instructions fetched each cycle (Total) (Count)
system.cpu0.fetch.nisnDist::mean             1.495414                       # Number of instructions fetched each cycle (Total) (Count)
system.cpu0.fetch.nisnDist::stdev            2.825921                       # Number of instructions fetched each cycle (Total) (Count)
system.cpu0.fetch.nisnDist::underflows              0      0.00%      0.00% # Number of instructions fetched each cycle (Total) (Count)
system.cpu0.fetch.nisnDist::0                 9781732     73.95%     73.95% # Number of instructions fetched each cycle (Total) (Count)
system.cpu0.fetch.nisnDist::1                  195337      1.48%     75.43% # Number of instructions fetched each cycle (Total) (Count)
system.cpu0.fetch.nisnDist::2                  381182      2.88%     78.31% # Number of instructions fetched each cycle (Total) (Count)
system.cpu0.fetch.nisnDist::3                  280428      2.12%     80.43% # Number of instructions fetched each cycle (Total) (Count)
system.cpu0.fetch.nisnDist::4                  347453      2.63%     83.06% # Number of instructions fetched each cycle (Total) (Count)
system.cpu0.fetch.nisnDist::5                  297661      2.25%     85.31% # Number of instructions fetched each cycle (Total) (Count)
system.cpu0.fetch.nisnDist::6                  128845      0.97%     86.28% # Number of instructions fetched each cycle (Total) (Count)
system.cpu0.fetch.nisnDist::7                  187647      1.42%     87.70% # Number of instructions fetched each cycle (Total) (Count)
system.cpu0.fetch.nisnDist::8                 1627088     12.30%    100.00% # Number of instructions fetched each cycle (Total) (Count)
system.cpu0.fetch.nisnDist::overflows               0      0.00%    100.00% # Number of instructions fetched each cycle (Total) (Count)
system.cpu0.fetch.nisnDist::min_value               0                       # Number of instructions fetched each cycle (Total) (Count)
system.cpu0.fetch.nisnDist::max_value               8                       # Number of instructions fetched each cycle (Total) (Count)
system.cpu0.fetch.nisnDist::total            13227373                       # Number of instructions fetched each cycle (Total) (Count)
system.cpu0.fetch.branchRate                 0.124329                       # Number of branch fetches per cycle (Ratio)
system.cpu0.fetch.rate                       0.768662                       # Number of inst fetches per cycle ((Count/Cycle))
system.cpu0.iew.idleCycles                          0                       # Number of cycles IEW is idle (Cycle)
system.cpu0.iew.squashCycles                    81865                       # Number of cycles IEW is squashing (Cycle)
system.cpu0.iew.blockCycles                   5290114                       # Number of cycles IEW is blocking (Cycle)
system.cpu0.iew.unblockCycles                  144052                       # Number of cycles IEW is unblocking (Cycle)
system.cpu0.iew.dispatchedInsts              18146376                       # Number of instructions dispatched to IQ (Count)
system.cpu0.iew.dispSquashedInsts                5674                       # Number of squashed instructions skipped by dispatch (Count)
system.cpu0.iew.dispLoadInsts                 1584252                       # Number of dispatched load instructions (Count)
system.cpu0.iew.dispStoreInsts                 836017                       # Number of dispatched store instructions (Count)
system.cpu0.iew.dispNonSpecInsts                  914                       # Number of dispatched non-speculative instructions (Count)
system.cpu0.iew.iqFullEvents                     7437                       # Number of times the IQ has become full, causing a stall (Count)
system.cpu0.iew.lsqFullEvents                  131430                       # Number of times the LSQ has become full, causing a stall (Count)
system.cpu0.iew.memOrderViolationEvents         12061                       # Number of memory order violations (Count)
system.cpu0.iew.predictedTakenIncorrect         30434                       # Number of branches that were predicted taken incorrectly (Count)
system.cpu0.iew.predictedNotTakenIncorrect        43420                       # Number of branches that were predicted not taken incorrectly (Count)
system.cpu0.iew.branchMispredicts               73854                       # Number of branch mispredicts detected at execute (Count)
system.cpu0.iew.instsToCommit                16602854                       # Cumulative count of insts sent to commit (Count)
system.cpu0.iew.writebackCount               16586676                       # Cumulative count of insts written-back (Count)
system.cpu0.iew.producerInst                 13542360                       # Number of instructions producing a value (Count)
system.cpu0.iew.consumerInst                 27714725                       # Number of instructions consuming a value (Count)
system.cpu0.iew.wbRate                       1.144580                       # Insts written-back per cycle ((Count/Cycle))
system.cpu0.iew.wbFanout                     0.488634                       # Average fanout of values written-back ((Count/Count))
system.cpu0.interrupts.clk_domain.clock          8000                       # Clock period in ticks (Tick)
system.cpu0.lsq0.forwLoads                     165332                       # Number of loads that had data forwarded from stores (Count)
system.cpu0.lsq0.squashedLoads                 414338                       # Number of loads squashed (Count)
system.cpu0.lsq0.ignoredResponses                 151                       # Number of memory responses ignored because the instruction is squashed (Count)
system.cpu0.lsq0.memOrderViolation              12061                       # Number of memory ordering violations (Count)
system.cpu0.lsq0.squashedStores                227908                       # Number of stores squashed (Count)
system.cpu0.lsq0.rescheduledLoads                1100                       # Number of loads that were rescheduled (Count)
system.cpu0.lsq0.blockedByCache                  2049                       # Number of times an access to memory failed due to the cache being blocked (Count)
system.cpu0.lsq0.loadToUse::samples           1169806                       # Distribution of cycle latency between the first time a load is issued and its completion (Unspecified)
system.cpu0.lsq0.loadToUse::mean            29.025258                       # Distribution of cycle latency between the first time a load is issued and its completion (Unspecified)
system.cpu0.lsq0.loadToUse::stdev          141.383480                       # Distribution of cycle latency between the first time a load is issued and its completion (Unspecified)
system.cpu0.lsq0.loadToUse::0-9               1124073     96.09%     96.09% # Distribution of cycle latency between the first time a load is issued and its completion (Unspecified)
system.cpu0.lsq0.loadToUse::10-19                  46      0.00%     96.09% # Distribution of cycle latency between the first time a load is issued and its completion (Unspecified)
system.cpu0.lsq0.loadToUse::20-29                  80      0.01%     96.10% # Distribution of cycle latency between the first time a load is issued and its completion (Unspecified)
system.cpu0.lsq0.loadToUse::30-39                 100      0.01%     96.11% # Distribution of cycle latency between the first time a load is issued and its completion (Unspecified)
system.cpu0.lsq0.loadToUse::40-49                  94      0.01%     96.12% # Distribution of cycle latency between the first time a load is issued and its completion (Unspecified)
system.cpu0.lsq0.loadToUse::50-59                 142      0.01%     96.13% # Distribution of cycle latency between the first time a load is issued and its completion (Unspecified)
system.cpu0.lsq0.loadToUse::60-69                  85      0.01%     96.14% # Distribution of cycle latency between the first time a load is issued and its completion (Unspecified)
system.cpu0.lsq0.loadToUse::70-79                  89      0.01%     96.14% # Distribution of cycle latency between the first time a load is issued and its completion (Unspecified)
system.cpu0.lsq0.loadToUse::80-89                  85      0.01%     96.15% # Distribution of cycle latency between the first time a load is issued and its completion (Unspecified)
system.cpu0.lsq0.loadToUse::90-99                  92      0.01%     96.16% # Distribution of cycle latency between the first time a load is issued and its completion (Unspecified)
system.cpu0.lsq0.loadToUse::100-109                79      0.01%     96.17% # Distribution of cycle latency between the first time a load is issued and its completion (Unspecified)
system.cpu0.lsq0.loadToUse::110-119                97      0.01%     96.18% # Distribution of cycle latency between the first time a load is issued and its completion (Unspecified)
system.cpu0.lsq0.loadToUse::120-129                68      0.01%     96.18% # Distribution of cycle latency between the first time a load is issued and its completion (Unspecified)
system.cpu0.lsq0.loadToUse::130-139                46      0.00%     96.18% # Distribution of cycle latency between the first time a load is issued and its completion (Unspecified)
system.cpu0.lsq0.loadToUse::140-149                76      0.01%     96.19% # Distribution of cycle latency between the first time a load is issued and its completion (Unspecified)
system.cpu0.lsq0.loadToUse::150-159                68      0.01%     96.20% # Distribution of cycle latency between the first time a load is issued and its completion (Unspecified)
system.cpu0.lsq0.loadToUse::160-169                52      0.00%     96.20% # Distribution of cycle latency between the first time a load is issued and its completion (Unspecified)
system.cpu0.lsq0.loadToUse::170-179               120      0.01%     96.21% # Distribution of cycle latency between the first time a load is issued and its completion (Unspecified)
system.cpu0.lsq0.loadToUse::180-189               585      0.05%     96.26% # Distribution of cycle latency between the first time a load is issued and its completion (Unspecified)
system.cpu0.lsq0.loadToUse::190-199                28      0.00%     96.26% # Distribution of cycle latency between the first time a load is issued and its completion (Unspecified)
system.cpu0.lsq0.loadToUse::200-209                46      0.00%     96.27% # Distribution of cycle latency between the first time a load is issued and its completion (Unspecified)
system.cpu0.lsq0.loadToUse::210-219                93      0.01%     96.28% # Distribution of cycle latency between the first time a load is issued and its completion (Unspecified)
system.cpu0.lsq0.loadToUse::220-229               124      0.01%     96.29% # Distribution of cycle latency between the first time a load is issued and its completion (Unspecified)
system.cpu0.lsq0.loadToUse::230-239               189      0.02%     96.30% # Distribution of cycle latency between the first time a load is issued and its completion (Unspecified)
system.cpu0.lsq0.loadToUse::240-249              1070      0.09%     96.39% # Distribution of cycle latency between the first time a load is issued and its completion (Unspecified)
system.cpu0.lsq0.loadToUse::250-259                36      0.00%     96.40% # Distribution of cycle latency between the first time a load is issued and its completion (Unspecified)
system.cpu0.lsq0.loadToUse::260-269                75      0.01%     96.40% # Distribution of cycle latency between the first time a load is issued and its completion (Unspecified)
system.cpu0.lsq0.loadToUse::270-279                92      0.01%     96.41% # Distribution of cycle latency between the first time a load is issued and its completion (Unspecified)
system.cpu0.lsq0.loadToUse::280-289               182      0.02%     96.43% # Distribution of cycle latency between the first time a load is issued and its completion (Unspecified)
system.cpu0.lsq0.loadToUse::290-299               253      0.02%     96.45% # Distribution of cycle latency between the first time a load is issued and its completion (Unspecified)
system.cpu0.lsq0.loadToUse::overflows           41541      3.55%    100.00% # Distribution of cycle latency between the first time a load is issued and its completion (Unspecified)
system.cpu0.lsq0.loadToUse::min_value               2                       # Distribution of cycle latency between the first time a load is issued and its completion (Unspecified)
system.cpu0.lsq0.loadToUse::max_value            2121                       # Distribution of cycle latency between the first time a load is issued and its completion (Unspecified)
system.cpu0.lsq0.loadToUse::total             1169806                       # Distribution of cycle latency between the first time a load is issued and its completion (Unspecified)
system.cpu0.mmu.dtb.rdAccesses                1325826                       # TLB accesses on read requests (Count)
system.cpu0.mmu.dtb.wrAccesses                 663386                       # TLB accesses on write requests (Count)
system.cpu0.mmu.dtb.rdMisses                     3233                       # TLB misses on read requests (Count)
system.cpu0.mmu.dtb.wrMisses                      429                       # TLB misses on write requests (Count)
system.cpu0.mmu.dtb.walker.power_state.pwrStateResidencyTicks::UNDEFINED   7288768000                       # Cumulative time (in ticks) in various power states (Tick)
system.cpu0.mmu.itb.rdAccesses                      0                       # TLB accesses on read requests (Count)
system.cpu0.mmu.itb.wrAccesses                1590534                       # TLB accesses on write requests (Count)
system.cpu0.mmu.itb.rdMisses                        0                       # TLB misses on read requests (Count)
system.cpu0.mmu.itb.wrMisses                     3034                       # TLB misses on write requests (Count)
system.cpu0.mmu.itb.walker.power_state.pwrStateResidencyTicks::UNDEFINED   7288768000                       # Cumulative time (in ticks) in various power states (Tick)
system.cpu0.power_state.pwrStateResidencyTicks::ON   7288768000                       # Cumulative time (in ticks) in various power states (Tick)
system.cpu0.rename.squashCycles                 81865                       # Number of cycles rename is squashing (Cycle)
system.cpu0.rename.idleCycles                 1773492                       # Number of cycles rename is idle (Cycle)
system.cpu0.rename.blockCycles                6885115                       # Number of cycles rename is blocking (Cycle)
system.cpu0.rename.serializeStallCycles         22455                       # count of cycles rename stalled for serializing inst (Cycle)
system.cpu0.rename.runCycles                  2523446                       # Number of cycles rename is running (Cycle)
system.cpu0.rename.unblockCycles              1941000                       # Number of cycles rename is unblocking (Cycle)
system.cpu0.rename.renamedInsts              18706623                       # Number of instructions processed by rename (Count)
system.cpu0.rename.ROBFullEvents               104971                       # Number of times rename has blocked due to ROB full (Count)
system.cpu0.rename.IQFullEvents               1019523                       # Number of times rename has blocked due to IQ full (Count)
system.cpu0.rename.LQFullEvents                149341                       # Number of times rename has blocked due to LQ full (Count)
system.cpu0.rename.SQFullEvents                535224                       # Number of times rename has blocked due to SQ full (Count)
system.cpu0.rename.fullRegistersEvents           2872                       # Number of times there has been no free registers (Count)
system.cpu0.rename.renamedOperands           38966003                       # Number of destination operands rename has renamed (Count)
system.cpu0.rename.lookups                   74003304                       # Number of register rename lookups that rename has made (Count)
system.cpu0.rename.intLookups                28406504                       # Number of integer rename lookups (Count)
system.cpu0.rename.fpLookups                   280968                       # Number of floating rename lookups (Count)
system.cpu0.rename.committedMaps             30697623                       # Number of HB maps that are committed (Count)
system.cpu0.rename.undoneMaps                 8268380                       # Number of HB maps that are undone due to squashing (Count)
system.cpu0.rename.serializing                    875                       # count of serializing insts renamed (Count)
system.cpu0.rename.tempSerializing                860                       # count of temporary serializing insts renamed (Count)
system.cpu0.rename.skidInsts                  3398610                       # count of insts added to the skid buffer (Count)
system.cpu0.rob.reads                        30039140                       # The number of ROB reads (Count)
system.cpu0.rob.writes                       36801427                       # The number of ROB writes (Count)
system.cpu0.thread_0.numInsts                 8292987                       # Number of Instructions committed (Count)
system.cpu0.thread_0.numOps                  14441815                       # Number of Ops committed (Count)
system.cpu0.thread_0.numMemRefs                     0                       # Number of Memory References (Count)
system.cpu0.workload.numSyscalls                   66                       # Number of system calls (Count)
system.cpu1.numCycles                        13990163                       # Number of cpu cycles simulated (Cycle)
system.cpu1.numWorkItemsStarted                     0                       # Number of work items this cpu started (Count)
system.cpu1.numWorkItemsCompleted                   0                       # Number of work items this cpu completed (Count)
system.cpu1.instsAdded                       18145080                       # Number of instructions added to the IQ (excludes non-spec) (Count)
system.cpu1.nonSpecInstsAdded                    1127                       # Number of non-speculative instructions added to the IQ (Count)
system.cpu1.instsIssued                      16813655                       # Number of instructions issued (Count)
system.cpu1.squashedInstsIssued                  5050                       # Number of squashed instructions issued (Count)
system.cpu1.squashedInstsExamined             3704392                       # Number of squashed instructions iterated over during squash; mainly for profiling (Count)
system.cpu1.squashedOperandsExamined          7160283                       # Number of squashed operands that are examined and possibly removed from graph (Count)
system.cpu1.squashedNonSpecRemoved                273                       # Number of squashed non-spec instructions that were removed (Count)
system.cpu1.numIssuedDist::samples           12837173                       # Number of insts issued each cycle (Count)
system.cpu1.numIssuedDist::mean              1.309763                       # Number of insts issued each cycle (Count)
system.cpu1.numIssuedDist::stdev             1.923958                       # Number of insts issued each cycle (Count)
system.cpu1.numIssuedDist::underflows               0      0.00%      0.00% # Number of insts issued each cycle (Count)
system.cpu1.numIssuedDist::0                  7746662     60.35%     60.35% # Number of insts issued each cycle (Count)
system.cpu1.numIssuedDist::1                   670770      5.23%     65.57% # Number of insts issued each cycle (Count)
system.cpu1.numIssuedDist::2                  1194617      9.31%     74.88% # Number of insts issued each cycle (Count)
system.cpu1.numIssuedDist::3                  1192275      9.29%     84.16% # Number of insts issued each cycle (Count)
system.cpu1.numIssuedDist::4                   856145      6.67%     90.83% # Number of insts issued each cycle (Count)
system.cpu1.numIssuedDist::5                   582905      4.54%     95.37% # Number of insts issued each cycle (Count)
system.cpu1.numIssuedDist::6                   388230      3.02%     98.40% # Number of insts issued each cycle (Count)
system.cpu1.numIssuedDist::7                   136211      1.06%     99.46% # Number of insts issued each cycle (Count)
system.cpu1.numIssuedDist::8                    69358      0.54%    100.00% # Number of insts issued each cycle (Count)
system.cpu1.numIssuedDist::overflows                0      0.00%    100.00% # Number of insts issued each cycle (Count)
system.cpu1.numIssuedDist::min_value                0                       # Number of insts issued each cycle (Count)
system.cpu1.numIssuedDist::max_value                8                       # Number of insts issued each cycle (Count)
system.cpu1.numIssuedDist::total             12837173                       # Number of insts issued each cycle (Count)
system.cpu1.statFuBusy::No_OpClass                  0      0.00%      0.00% # attempts to use FU when none available (Count)
system.cpu1.statFuBusy::IntAlu                 117859     83.82%     83.82% # attempts to use FU when none available (Count)
system.cpu1.statFuBusy::IntMult                     0      0.00%     83.82% # attempts to use FU when none available (Count)
system.cpu1.statFuBusy::IntDiv                      0      0.00%     83.82% # attempts to use FU when none available (Count)
system.cpu1.statFuBusy::FloatAdd                    0      0.00%     83.82% # attempts to use FU when none available (Count)
system.cpu1.statFuBusy::FloatCmp                    0      0.00%     83.82% # attempts to use FU when none available (Count)
system.cpu1.statFuBusy::FloatCvt                    0      0.00%     83.82% # attempts to use FU when none available (Count)
system.cpu1.statFuBusy::FloatMult                   0      0.00%     83.82% # attempts to use FU when none available (Count)
system.cpu1.statFuBusy::FloatMultAcc                0      0.00%     83.82% # attempts to use FU when none available (Count)
system.cpu1.statFuBusy::FloatDiv                    0      0.00%     83.82% # attempts to use FU when none available (Count)
system.cpu1.statFuBusy::FloatMisc                   0      0.00%     83.82% # attempts to use FU when none available (Count)
system.cpu1.statFuBusy::FloatSqrt                   0      0.00%     83.82% # attempts to use FU when none available (Count)
system.cpu1.statFuBusy::SimdAdd                     0      0.00%     83.82% # attempts to use FU when none available (Count)
system.cpu1.statFuBusy::SimdAddAcc                  0      0.00%     83.82% # attempts to use FU when none available (Count)
system.cpu1.statFuBusy::SimdAlu                   118      0.08%     83.91% # attempts to use FU when none available (Count)
system.cpu1.statFuBusy::SimdCmp                     0      0.00%     83.91% # attempts to use FU when none available (Count)
system.cpu1.statFuBusy::SimdCvt                   147      0.10%     84.01% # attempts to use FU when none available (Count)
system.cpu1.statFuBusy::SimdMisc                    0      0.00%     84.01% # attempts to use FU when none available (Count)
system.cpu1.statFuBusy::SimdMult                    0      0.00%     84.01% # attempts to use FU when none available (Count)
system.cpu1.statFuBusy::SimdMultAcc                 0      0.00%     84.01% # attempts to use FU when none available (Count)
system.cpu1.statFuBusy::SimdShift                 131      0.09%     84.10% # attempts to use FU when none available (Count)
system.cpu1.statFuBusy::SimdShiftAcc                0      0.00%     84.10% # attempts to use FU when none available (Count)
system.cpu1.statFuBusy::SimdDiv                     0      0.00%     84.10% # attempts to use FU when none available (Count)
system.cpu1.statFuBusy::SimdSqrt                    0      0.00%     84.10% # attempts to use FU when none available (Count)
system.cpu1.statFuBusy::SimdFloatAdd                0      0.00%     84.10% # attempts to use FU when none available (Count)
system.cpu1.statFuBusy::SimdFloatAlu                0      0.00%     84.10% # attempts to use FU when none available (Count)
system.cpu1.statFuBusy::SimdFloatCmp                0      0.00%     84.10% # attempts to use FU when none available (Count)
system.cpu1.statFuBusy::SimdFloatCvt                0      0.00%     84.10% # attempts to use FU when none available (Count)
system.cpu1.statFuBusy::SimdFloatDiv                0      0.00%     84.10% # attempts to use FU when none available (Count)
system.cpu1.statFuBusy::SimdFloatMisc               0      0.00%     84.10% # attempts to use FU when none available (Count)
system.cpu1.statFuBusy::SimdFloatMult               0      0.00%     84.10% # attempts to use FU when none available (Count)
system.cpu1.statFuBusy::SimdFloatMultAcc            0      0.00%     84.10% # attempts to use FU when none available (Count)
system.cpu1.statFuBusy::SimdFloatSqrt               0      0.00%     84.10% # attempts to use FU when none available (Count)
system.cpu1.statFuBusy::SimdReduceAdd               0      0.00%     84.10% # attempts to use FU when none available (Count)
system.cpu1.statFuBusy::SimdReduceAlu               0      0.00%     84.10% # attempts to use FU when none available (Count)
system.cpu1.statFuBusy::SimdReduceCmp               0      0.00%     84.10% # attempts to use FU when none available (Count)
system.cpu1.statFuBusy::SimdFloatReduceAdd            0      0.00%     84.10% # attempts to use FU when none available (Count)
system.cpu1.statFuBusy::SimdFloatReduceCmp            0      0.00%     84.10% # attempts to use FU when none available (Count)
system.cpu1.statFuBusy::SimdAes                     0      0.00%     84.10% # attempts to use FU when none available (Count)
system.cpu1.statFuBusy::SimdAesMix                  0      0.00%     84.10% # attempts to use FU when none available (Count)
system.cpu1.statFuBusy::SimdSha1Hash                0      0.00%     84.10% # attempts to use FU when none available (Count)
system.cpu1.statFuBusy::SimdSha1Hash2               0      0.00%     84.10% # attempts to use FU when none available (Count)
system.cpu1.statFuBusy::SimdSha256Hash              0      0.00%     84.10% # attempts to use FU when none available (Count)
system.cpu1.statFuBusy::SimdSha256Hash2             0      0.00%     84.10% # attempts to use FU when none available (Count)
system.cpu1.statFuBusy::SimdShaSigma2               0      0.00%     84.10% # attempts to use FU when none available (Count)
system.cpu1.statFuBusy::SimdShaSigma3               0      0.00%     84.10% # attempts to use FU when none available (Count)
system.cpu1.statFuBusy::SimdPredAlu                 0      0.00%     84.10% # attempts to use FU when none available (Count)
system.cpu1.statFuBusy::MemRead                 12082      8.59%     92.70% # attempts to use FU when none available (Count)
system.cpu1.statFuBusy::MemWrite                 7921      5.63%     98.33% # attempts to use FU when none available (Count)
system.cpu1.statFuBusy::FloatMemRead             1723      1.23%     99.56% # attempts to use FU when none available (Count)
system.cpu1.statFuBusy::FloatMemWrite             625      0.44%    100.00% # attempts to use FU when none available (Count)
system.cpu1.statFuBusy::IprAccess                   0      0.00%    100.00% # attempts to use FU when none available (Count)
system.cpu1.statFuBusy::InstPrefetch                0      0.00%    100.00% # attempts to use FU when none available (Count)
system.cpu1.statIssuedInstType_0::No_OpClass        60143      0.36%      0.36% # Number of instructions issued per FU type, per thread (Count)
system.cpu1.statIssuedInstType_0::IntAlu     14590195     86.78%     87.13% # Number of instructions issued per FU type, per thread (Count)
system.cpu1.statIssuedInstType_0::IntMult           35      0.00%     87.13% # Number of instructions issued per FU type, per thread (Count)
system.cpu1.statIssuedInstType_0::IntDiv        38442      0.23%     87.36% # Number of instructions issued per FU type, per thread (Count)
system.cpu1.statIssuedInstType_0::FloatAdd         6396      0.04%     87.40% # Number of instructions issued per FU type, per thread (Count)
system.cpu1.statIssuedInstType_0::FloatCmp            0      0.00%     87.40% # Number of instructions issued per FU type, per thread (Count)
system.cpu1.statIssuedInstType_0::FloatCvt         1728      0.01%     87.41% # Number of instructions issued per FU type, per thread (Count)
system.cpu1.statIssuedInstType_0::FloatMult            0      0.00%     87.41% # Number of instructions issued per FU type, per thread (Count)
system.cpu1.statIssuedInstType_0::FloatMultAcc            0      0.00%     87.41% # Number of instructions issued per FU type, per thread (Count)
system.cpu1.statIssuedInstType_0::FloatDiv            0      0.00%     87.41% # Number of instructions issued per FU type, per thread (Count)
system.cpu1.statIssuedInstType_0::FloatMisc            0      0.00%     87.41% # Number of instructions issued per FU type, per thread (Count)
system.cpu1.statIssuedInstType_0::FloatSqrt            0      0.00%     87.41% # Number of instructions issued per FU type, per thread (Count)
system.cpu1.statIssuedInstType_0::SimdAdd         8425      0.05%     87.46% # Number of instructions issued per FU type, per thread (Count)
system.cpu1.statIssuedInstType_0::SimdAddAcc            0      0.00%     87.46% # Number of instructions issued per FU type, per thread (Count)
system.cpu1.statIssuedInstType_0::SimdAlu        25331      0.15%     87.61% # Number of instructions issued per FU type, per thread (Count)
system.cpu1.statIssuedInstType_0::SimdCmp            0      0.00%     87.61% # Number of instructions issued per FU type, per thread (Count)
system.cpu1.statIssuedInstType_0::SimdCvt        26884      0.16%     87.77% # Number of instructions issued per FU type, per thread (Count)
system.cpu1.statIssuedInstType_0::SimdMisc        27333      0.16%     87.93% # Number of instructions issued per FU type, per thread (Count)
system.cpu1.statIssuedInstType_0::SimdMult            0      0.00%     87.93% # Number of instructions issued per FU type, per thread (Count)
system.cpu1.statIssuedInstType_0::SimdMultAcc            0      0.00%     87.93% # Number of instructions issued per FU type, per thread (Count)
system.cpu1.statIssuedInstType_0::SimdShift         2499      0.01%     87.95% # Number of instructions issued per FU type, per thread (Count)
system.cpu1.statIssuedInstType_0::SimdShiftAcc            0      0.00%     87.95% # Number of instructions issued per FU type, per thread (Count)
system.cpu1.statIssuedInstType_0::SimdDiv            0      0.00%     87.95% # Number of instructions issued per FU type, per thread (Count)
system.cpu1.statIssuedInstType_0::SimdSqrt            0      0.00%     87.95% # Number of instructions issued per FU type, per thread (Count)
system.cpu1.statIssuedInstType_0::SimdFloatAdd            0      0.00%     87.95% # Number of instructions issued per FU type, per thread (Count)
system.cpu1.statIssuedInstType_0::SimdFloatAlu            0      0.00%     87.95% # Number of instructions issued per FU type, per thread (Count)
system.cpu1.statIssuedInstType_0::SimdFloatCmp            0      0.00%     87.95% # Number of instructions issued per FU type, per thread (Count)
system.cpu1.statIssuedInstType_0::SimdFloatCvt            0      0.00%     87.95% # Number of instructions issued per FU type, per thread (Count)
system.cpu1.statIssuedInstType_0::SimdFloatDiv            0      0.00%     87.95% # Number of instructions issued per FU type, per thread (Count)
system.cpu1.statIssuedInstType_0::SimdFloatMisc            0      0.00%     87.95% # Number of instructions issued per FU type, per thread (Count)
system.cpu1.statIssuedInstType_0::SimdFloatMult            0      0.00%     87.95% # Number of instructions issued per FU type, per thread (Count)
system.cpu1.statIssuedInstType_0::SimdFloatMultAcc            0      0.00%     87.95% # Number of instructions issued per FU type, per thread (Count)
system.cpu1.statIssuedInstType_0::SimdFloatSqrt            0      0.00%     87.95% # Number of instructions issued per FU type, per thread (Count)
system.cpu1.statIssuedInstType_0::SimdReduceAdd            0      0.00%     87.95% # Number of instructions issued per FU type, per thread (Count)
system.cpu1.statIssuedInstType_0::SimdReduceAlu            0      0.00%     87.95% # Number of instructions issued per FU type, per thread (Count)
system.cpu1.statIssuedInstType_0::SimdReduceCmp            0      0.00%     87.95% # Number of instructions issued per FU type, per thread (Count)
system.cpu1.statIssuedInstType_0::SimdFloatReduceAdd            0      0.00%     87.95% # Number of instructions issued per FU type, per thread (Count)
system.cpu1.statIssuedInstType_0::SimdFloatReduceCmp            0      0.00%     87.95% # Number of instructions issued per FU type, per thread (Count)
system.cpu1.statIssuedInstType_0::SimdAes            0      0.00%     87.95% # Number of instructions issued per FU type, per thread (Count)
system.cpu1.statIssuedInstType_0::SimdAesMix            0      0.00%     87.95% # Number of instructions issued per FU type, per thread (Count)
system.cpu1.statIssuedInstType_0::SimdSha1Hash            0      0.00%     87.95% # Number of instructions issued per FU type, per thread (Count)
system.cpu1.statIssuedInstType_0::SimdSha1Hash2            0      0.00%     87.95% # Number of instructions issued per FU type, per thread (Count)
system.cpu1.statIssuedInstType_0::SimdSha256Hash            0      0.00%     87.95% # Number of instructions issued per FU type, per thread (Count)
system.cpu1.statIssuedInstType_0::SimdSha256Hash2            0      0.00%     87.95% # Number of instructions issued per FU type, per thread (Count)
system.cpu1.statIssuedInstType_0::SimdShaSigma2            0      0.00%     87.95% # Number of instructions issued per FU type, per thread (Count)
system.cpu1.statIssuedInstType_0::SimdShaSigma3            0      0.00%     87.95% # Number of instructions issued per FU type, per thread (Count)
system.cpu1.statIssuedInstType_0::SimdPredAlu            0      0.00%     87.95% # Number of instructions issued per FU type, per thread (Count)
system.cpu1.statIssuedInstType_0::MemRead      1314890      7.82%     95.77% # Number of instructions issued per FU type, per thread (Count)
system.cpu1.statIssuedInstType_0::MemWrite       646759      3.85%     99.62% # Number of instructions issued per FU type, per thread (Count)
system.cpu1.statIssuedInstType_0::FloatMemRead        42439      0.25%     99.87% # Number of instructions issued per FU type, per thread (Count)
system.cpu1.statIssuedInstType_0::FloatMemWrite        22156      0.13%    100.00% # Number of instructions issued per FU type, per thread (Count)
system.cpu1.statIssuedInstType_0::IprAccess            0      0.00%    100.00% # Number of instructions issued per FU type, per thread (Count)
system.cpu1.statIssuedInstType_0::InstPrefetch            0      0.00%    100.00% # Number of instructions issued per FU type, per thread (Count)
system.cpu1.statIssuedInstType_0::total      16813655                       # Number of instructions issued per FU type, per thread (Count)
system.cpu1.issueRate                        1.201820                       # Inst issue rate ((Count/Cycle))
system.cpu1.fuBusy                             140606                       # FU busy when requested (Count)
system.cpu1.fuBusyRate                       0.008363                       # FU busy rate (busy events/executed inst) ((Count/Count))
system.cpu1.intInstQueueReads                46266097                       # Number of integer instruction queue reads (Count)
system.cpu1.intInstQueueWrites               21629826                       # Number of integer instruction queue writes (Count)
system.cpu1.intInstQueueWakeupAccesses       16420142                       # Number of integer instruction queue wakeup accesses (Count)
system.cpu1.fpInstQueueReads                   344042                       # Number of floating instruction queue reads (Count)
system.cpu1.fpInstQueueWrites                  232837                       # Number of floating instruction queue writes (Count)
system.cpu1.fpInstQueueWakeupAccesses          165551                       # Number of floating instruction queue wakeup accesses (Count)
system.cpu1.vecInstQueueReads                       0                       # Number of vector instruction queue reads (Count)
system.cpu1.vecInstQueueWrites                      0                       # Number of vector instruction queue writes (Count)
system.cpu1.vecInstQueueWakeupAccesses              0                       # Number of vector instruction queue wakeup accesses (Count)
system.cpu1.intAluAccesses                   16720889                       # Number of integer alu accesses (Count)
system.cpu1.fpAluAccesses                      173229                       # Number of floating point alu accesses (Count)
system.cpu1.vecAluAccesses                          0                       # Number of vector alu accesses (Count)
system.cpu1.numInsts                         16636252                       # Number of executed instructions (Count)
system.cpu1.numLoadInsts                      1331173                       # Number of load instructions executed (Count)
system.cpu1.numSquashedInsts                   177403                       # Number of squashed instructions skipped in execute (Count)
system.cpu1.numSwp                                  0                       # Number of swp insts executed (Count)
system.cpu1.numNop                                  0                       # Number of nop insts executed (Count)
system.cpu1.numRefs                           1994572                       # Number of memory reference insts executed (Count)
system.cpu1.numBranches                       1435473                       # Number of branches executed (Count)
[...]
system.ruby.network.ext_out_link_utilization      4282642                       (Unspecified)
system.ruby.network.flit_network_latency | 81393261500                       |213584656000                       | 19753534500                       (Unspecified)
system.ruby.network.flit_queueing_latency |  2244142500                       |  2272892500                       |   149739000                       (Unspecified)
system.ruby.network.flits_injected       |     1014488     23.69%     23.69% |     2968676     69.32%     93.01% |      299480      6.99%    100.00% (Unspecified)
system.ruby.network.flits_injected::total      4282644                       (Unspecified)
system.ruby.network.flits_received       |     1014487     23.69%     23.69% |     2968676     69.32%     93.01% |      299478      6.99%    100.00% (Unspecified)
system.ruby.network.flits_received::total      4282641                       (Unspecified)
system.ruby.network.int_link_utilization     10628721                       (Unspecified)
system.ruby.network.packet_network_latency | 60534865000                       | 70415656000                       | 19753534500                       (Unspecified)
system.ruby.network.packet_queueing_latency |  1820184500                       |   587956500                       |   149739000                       (Unspecified)
system.ruby.network.packets_injected     |      826812     42.33%     42.33% |      826808     42.33%     84.67% |      299480     15.33%    100.00% (Unspecified)
system.ruby.network.packets_injected::total      1953100                       (Unspecified)
system.ruby.network.packets_received     |      826811     42.33%     42.33% |      826808     42.33%     84.67% |      299478     15.33%    100.00% (Unspecified)
system.ruby.network.packets_received::total      1953097                       (Unspecified)
system.ruby.network.routers00.Var_1                 0                       (Unspecified)
system.ruby.network.routers00.Var_2                 0                       (Unspecified)
system.ruby.network.routers00.Var_3                 0                       (Unspecified)
system.ruby.network.routers00.all_counts            0                       (Unspecified)
system.ruby.network.routers00.buffer_reads       678174                       (Unspecified)
system.ruby.network.routers00.buffer_writes       678174                       (Unspecified)
system.ruby.network.routers00.crossbar_activity       678174                       (Unspecified)
system.ruby.network.routers00.detour_counts            0                       (Unspecified)
system.ruby.network.routers00.regular_var            0                       (Unspecified)
system.ruby.network.routers00.risk_counts            0                       (Unspecified)
system.ruby.network.routers00.sw_input_arbiter_activity       682882                       (Unspecified)
system.ruby.network.routers00.sw_output_arbiter_activity       678174                       (Unspecified)
system.ruby.network.routers01.Var_1                 0                       (Unspecified)
system.ruby.network.routers01.Var_2                 0                       (Unspecified)
system.ruby.network.routers01.Var_3                 0                       (Unspecified)
system.ruby.network.routers01.all_counts            0                       (Unspecified)
system.ruby.network.routers01.buffer_reads       948445                       (Unspecified)
system.ruby.network.routers01.buffer_writes       948445                       (Unspecified)
system.ruby.network.routers01.crossbar_activity       948445                       (Unspecified)
system.ruby.network.routers01.detour_counts            0                       (Unspecified)
system.ruby.network.routers01.regular_var            0                       (Unspecified)
system.ruby.network.routers01.risk_counts            0                       (Unspecified)
system.ruby.network.routers01.sw_input_arbiter_activity       958746                       (Unspecified)
system.ruby.network.routers01.sw_output_arbiter_activity       948445                       (Unspecified)
system.ruby.network.routers02.Var_1                 0                       (Unspecified)
system.ruby.network.routers02.Var_2                 0                       (Unspecified)
system.ruby.network.routers02.Var_3                 0                       (Unspecified)
system.ruby.network.routers02.all_counts            0                       (Unspecified)
system.ruby.network.routers02.buffer_reads       949921                       (Unspecified)
system.ruby.network.routers02.buffer_writes       949921                       (Unspecified)
system.ruby.network.routers02.crossbar_activity       949921                       (Unspecified)
system.ruby.network.routers02.detour_counts            0                       (Unspecified)
system.ruby.network.routers02.regular_var            0                       (Unspecified)
system.ruby.network.routers02.risk_counts            0                       (Unspecified)
system.ruby.network.routers02.sw_input_arbiter_activity       960340                       (Unspecified)
system.ruby.network.routers02.sw_output_arbiter_activity       949921                       (Unspecified)
system.ruby.network.routers03.Var_1                 0                       (Unspecified)
system.ruby.network.routers03.Var_2                 0                       (Unspecified)
system.ruby.network.routers03.Var_3                 0                       (Unspecified)
system.ruby.network.routers03.all_counts            0                       (Unspecified)
system.ruby.network.routers03.buffer_reads       668157                       (Unspecified)
system.ruby.network.routers03.buffer_writes       668157                       (Unspecified)
system.ruby.network.routers03.crossbar_activity       668157                       (Unspecified)
system.ruby.network.routers03.detour_counts            0                       (Unspecified)
system.ruby.network.routers03.regular_var            0                       (Unspecified)
system.ruby.network.routers03.risk_counts            0                       (Unspecified)
system.ruby.network.routers03.sw_input_arbiter_activity       672550                       (Unspecified)
system.ruby.network.routers03.sw_output_arbiter_activity       668157                       (Unspecified)
system.ruby.network.routers04.Var_1                 0                       (Unspecified)
system.ruby.network.routers04.Var_2                 0                       (Unspecified)
system.ruby.network.routers04.Var_3                 0                       (Unspecified)
system.ruby.network.routers04.all_counts            0                       (Unspecified)
system.ruby.network.routers04.buffer_reads       928282                       (Unspecified)
system.ruby.network.routers04.buffer_writes       928282                       (Unspecified)
system.ruby.network.routers04.crossbar_activity       928282                       (Unspecified)
system.ruby.network.routers04.detour_counts            0                       (Unspecified)
system.ruby.network.routers04.regular_var            0                       (Unspecified)
system.ruby.network.routers04.risk_counts            0                       (Unspecified)
system.ruby.network.routers04.sw_input_arbiter_activity       937676                       (Unspecified)
system.ruby.network.routers04.sw_output_arbiter_activity       928282                       (Unspecified)
system.ruby.network.routers05.Var_1                 0                       (Unspecified)
system.ruby.network.routers05.Var_2                 0                       (Unspecified)
system.ruby.network.routers05.Var_3                 0                       (Unspecified)
system.ruby.network.routers05.all_counts            0                       (Unspecified)
system.ruby.network.routers05.buffer_reads      1198874                       (Unspecified)
system.ruby.network.routers05.buffer_writes      1198874                       (Unspecified)
system.ruby.network.routers05.crossbar_activity      1198874                       (Unspecified)
system.ruby.network.routers05.detour_counts            0                       (Unspecified)
system.ruby.network.routers05.regular_var            0                       (Unspecified)
system.ruby.network.routers05.risk_counts            0                       (Unspecified)
system.ruby.network.routers05.sw_input_arbiter_activity      1214308                       (Unspecified)
system.ruby.network.routers05.sw_output_arbiter_activity      1198874                       (Unspecified)
system.ruby.network.routers06.Var_1                 0                       (Unspecified)
system.ruby.network.routers06.Var_2                 0                       (Unspecified)
system.ruby.network.routers06.Var_3                 0                       (Unspecified)
system.ruby.network.routers06.all_counts            0                       (Unspecified)
system.ruby.network.routers06.buffer_reads      1195510                       (Unspecified)
system.ruby.network.routers06.buffer_writes      1195510                       (Unspecified)
system.ruby.network.routers06.crossbar_activity      1195510                       (Unspecified)
system.ruby.network.routers06.detour_counts            0                       (Unspecified)
system.ruby.network.routers06.regular_var            0                       (Unspecified)
system.ruby.network.routers06.risk_counts            0                       (Unspecified)
system.ruby.network.routers06.sw_input_arbiter_activity      1211438                       (Unspecified)
system.ruby.network.routers06.sw_output_arbiter_activity      1195510                       (Unspecified)
system.ruby.network.routers07.Var_1                 0                       (Unspecified)
system.ruby.network.routers07.Var_2                 0                       (Unspecified)
system.ruby.network.routers07.Var_3                 0                       (Unspecified)
system.ruby.network.routers07.all_counts            0                       (Unspecified)
system.ruby.network.routers07.buffer_reads       915353                       (Unspecified)
system.ruby.network.routers07.buffer_writes       915353                       (Unspecified)
system.ruby.network.routers07.crossbar_activity       915353                       (Unspecified)
system.ruby.network.routers07.detour_counts            0                       (Unspecified)
system.ruby.network.routers07.regular_var            0                       (Unspecified)
system.ruby.network.routers07.risk_counts            0                       (Unspecified)
system.ruby.network.routers07.sw_input_arbiter_activity       924968                       (Unspecified)
system.ruby.network.routers07.sw_output_arbiter_activity       915353                       (Unspecified)
system.ruby.network.routers08.Var_1                 0                       (Unspecified)
system.ruby.network.routers08.Var_2                 0                       (Unspecified)
system.ruby.network.routers08.Var_3                 0                       (Unspecified)
system.ruby.network.routers08.all_counts            0                       (Unspecified)
system.ruby.network.routers08.buffer_reads       925287                       (Unspecified)
system.ruby.network.routers08.buffer_writes       925287                       (Unspecified)
system.ruby.network.routers08.crossbar_activity       925287                       (Unspecified)
system.ruby.network.routers08.detour_counts            0                       (Unspecified)
system.ruby.network.routers08.regular_var            0                       (Unspecified)
system.ruby.network.routers08.risk_counts            0                       (Unspecified)
system.ruby.network.routers08.sw_input_arbiter_activity       934713                       (Unspecified)
system.ruby.network.routers08.sw_output_arbiter_activity       925287                       (Unspecified)
system.ruby.network.routers09.Var_1                 0                       (Unspecified)
system.ruby.network.routers09.Var_2                 0                       (Unspecified)
system.ruby.network.routers09.Var_3                 0                       (Unspecified)
system.ruby.network.routers09.all_counts            0                       (Unspecified)
system.ruby.network.routers09.buffer_reads      1200829                       (Unspecified)
system.ruby.network.routers09.buffer_writes      1200829                       (Unspecified)
system.ruby.network.routers09.crossbar_activity      1200829                       (Unspecified)
system.ruby.network.routers09.detour_counts            0                       (Unspecified)
system.ruby.network.routers09.regular_var            0                       (Unspecified)
system.ruby.network.routers09.risk_counts            0                       (Unspecified)
system.ruby.network.routers09.sw_input_arbiter_activity      1216606                       (Unspecified)
system.ruby.network.routers09.sw_output_arbiter_activity      1200829                       (Unspecified)
system.ruby.network.routers10.Var_1                 0                       (Unspecified)
system.ruby.network.routers10.Var_2                 0                       (Unspecified)
system.ruby.network.routers10.Var_3                 0                       (Unspecified)
system.ruby.network.routers10.all_counts            0                       (Unspecified)
system.ruby.network.routers10.buffer_reads      1195963                       (Unspecified)
system.ruby.network.routers10.buffer_writes      1195963                       (Unspecified)
system.ruby.network.routers10.crossbar_activity      1195963                       (Unspecified)
system.ruby.network.routers10.detour_counts            0                       (Unspecified)
system.ruby.network.routers10.regular_var            0                       (Unspecified)
system.ruby.network.routers10.risk_counts            0                       (Unspecified)
system.ruby.network.routers10.sw_input_arbiter_activity      1211189                       (Unspecified)
system.ruby.network.routers10.sw_output_arbiter_activity      1195963                       (Unspecified)
system.ruby.network.routers11.Var_1                 0                       (Unspecified)
system.ruby.network.routers11.Var_2                 0                       (Unspecified)
system.ruby.network.routers11.Var_3                 0                       (Unspecified)
system.ruby.network.routers11.all_counts            0                       (Unspecified)
system.ruby.network.routers11.buffer_reads       911740                       (Unspecified)
system.ruby.network.routers11.buffer_writes       911740                       (Unspecified)
system.ruby.network.routers11.crossbar_activity       911740                       (Unspecified)
system.ruby.network.routers11.detour_counts            0                       (Unspecified)
system.ruby.network.routers11.regular_var            0                       (Unspecified)
system.ruby.network.routers11.risk_counts            0                       (Unspecified)
system.ruby.network.routers11.sw_input_arbiter_activity       921085                       (Unspecified)
system.ruby.network.routers11.sw_output_arbiter_activity       911740                       (Unspecified)
system.ruby.network.routers12.Var_1                 0                       (Unspecified)
system.ruby.network.routers12.Var_2                 0                       (Unspecified)
system.ruby.network.routers12.Var_3                 0                       (Unspecified)
system.ruby.network.routers12.all_counts            0                       (Unspecified)
system.ruby.network.routers12.buffer_reads       666752                       (Unspecified)
system.ruby.network.routers12.buffer_writes       666752                       (Unspecified)
system.ruby.network.routers12.crossbar_activity       666752                       (Unspecified)
system.ruby.network.routers12.detour_counts            0                       (Unspecified)
system.ruby.network.routers12.regular_var            0                       (Unspecified)
system.ruby.network.routers12.risk_counts            0                       (Unspecified)
system.ruby.network.routers12.sw_input_arbiter_activity       671073                       (Unspecified)
system.ruby.network.routers12.sw_output_arbiter_activity       666752                       (Unspecified)
system.ruby.network.routers13.Var_1                 0                       (Unspecified)
system.ruby.network.routers13.Var_2                 0                       (Unspecified)
system.ruby.network.routers13.Var_3                 0                       (Unspecified)
system.ruby.network.routers13.all_counts            0                       (Unspecified)
system.ruby.network.routers13.buffer_reads       938013                       (Unspecified)
system.ruby.network.routers13.buffer_writes       938013                       (Unspecified)
system.ruby.network.routers13.crossbar_activity       938013                       (Unspecified)
system.ruby.network.routers13.detour_counts            0                       (Unspecified)
system.ruby.network.routers13.regular_var            0                       (Unspecified)
system.ruby.network.routers13.risk_counts            0                       (Unspecified)
system.ruby.network.routers13.sw_input_arbiter_activity       948329                       (Unspecified)
system.ruby.network.routers13.sw_output_arbiter_activity       938013                       (Unspecified)
system.ruby.network.routers14.Var_1                 0                       (Unspecified)
system.ruby.network.routers14.Var_2                 0                       (Unspecified)
system.ruby.network.routers14.Var_3                 0                       (Unspecified)
system.ruby.network.routers14.all_counts            0                       (Unspecified)
system.ruby.network.routers14.buffer_reads       930791                       (Unspecified)
system.ruby.network.routers14.buffer_writes       930791                       (Unspecified)
system.ruby.network.routers14.crossbar_activity       930791                       (Unspecified)
system.ruby.network.routers14.detour_counts            0                       (Unspecified)
system.ruby.network.routers14.regular_var            0                       (Unspecified)
system.ruby.network.routers14.risk_counts            0                       (Unspecified)
system.ruby.network.routers14.sw_input_arbiter_activity       940842                       (Unspecified)
system.ruby.network.routers14.sw_output_arbiter_activity       930791                       (Unspecified)
system.ruby.network.routers15.Var_1                 0                       (Unspecified)
system.ruby.network.routers15.Var_2                 0                       (Unspecified)
system.ruby.network.routers15.Var_3                 0                       (Unspecified)
system.ruby.network.routers15.all_counts            0                       (Unspecified)
system.ruby.network.routers15.buffer_reads       659272                       (Unspecified)
system.ruby.network.routers15.buffer_writes       659272                       (Unspecified)
system.ruby.network.routers15.crossbar_activity       659272                       (Unspecified)
system.ruby.network.routers15.detour_counts            0                       (Unspecified)
system.ruby.network.routers15.regular_var            0                       (Unspecified)
system.ruby.network.routers15.risk_counts            0                       (Unspecified)
system.ruby.network.routers15.sw_input_arbiter_activity       663397                       (Unspecified)
system.ruby.network.routers15.sw_output_arbiter_activity       659272                       (Unspecified)

---------- End Simulation Statistics   ----------
