
---------- Begin Simulation Statistics ----------
simSeconds                                   0.006566                       # Number of seconds simulated (Second)
simTicks                                   6566168500                       # Number of ticks simulated (Tick)
finalTick                                  6566168500                       # Number of ticks from beginning of simulation (restored from checkpoints and never reset) (Tick)
simFreq                                  1000000000000                       # The number of ticks per simulated second ((Tick/Second))
hostSeconds                                   1386.13                       # Real time elapsed on the host (Second)
hostTickRate                                  4737066                       # The number of ticks simulated per host second (ticks/s) ((Tick/Second))
hostMemory                                   11405996                       # Number of bytes of host memory used (Byte)
simInsts                                    147286501                       # Number of instructions simulated (Count)
simOps                                      233366202                       # Number of ops (including micro ops) simulated (Count)
hostInstRate                                   106258                       # Simulator instruction rate (inst/s) ((Count/Second))
hostOpRate                                     168359                       # Simulator op (including micro ops) rate (op/s) ((Count/Second))
system.clk_domain.clock                          1000                       # Clock period in ticks (Tick)
system.cpu0.numCycles                        13132338                       # Number of cpu cycles simulated (Cycle)
system.cpu0.numWorkItemsStarted                     0                       # Number of work items this cpu started (Count)
system.cpu0.numWorkItemsCompleted                   0                       # Number of work items this cpu completed (Count)
system.cpu0.instsAdded                       14968131                       # Number of instructions added to the IQ (excludes non-spec) (Count)
system.cpu0.nonSpecInstsAdded                     881                       # Number of non-speculative instructions added to the IQ (Count)
system.cpu0.instsIssued                      14377690                       # Number of instructions issued (Count)
system.cpu0.squashedInstsIssued                  2814                       # Number of squashed instructions issued (Count)
system.cpu0.squashedInstsExamined             1456237                       # Number of squashed instructions iterated over during squash; mainly for profiling (Count)
system.cpu0.squashedOperandsExamined          3075012                       # Number of squashed operands that are examined and possibly removed from graph (Count)
system.cpu0.squashedNonSpecRemoved                148                       # Number of squashed non-spec instructions that were removed (Count)
system.cpu0.numIssuedDist::samples           12065612                       # Number of insts issued each cycle (Count)
system.cpu0.numIssuedDist::mean              1.191625                       # Number of insts issued each cycle (Count)
system.cpu0.numIssuedDist::stdev             1.758484                       # Number of insts issued each cycle (Count)
system.cpu0.numIssuedDist::underflows               0      0.00%      0.00% # Number of insts issued each cycle (Count)
system.cpu0.numIssuedDist::0                  7466813     61.89%     61.89% # Number of insts issued each cycle (Count)
system.cpu0.numIssuedDist::1                   448028      3.71%     65.60% # Number of insts issued each cycle (Count)
system.cpu0.numIssuedDist::2                  1253119     10.39%     75.98% # Number of insts issued each cycle (Count)
system.cpu0.numIssuedDist::3                  1375204     11.40%     87.38% # Number of insts issued each cycle (Count)
system.cpu0.numIssuedDist::4                   792406      6.57%     93.95% # Number of insts issued each cycle (Count)
system.cpu0.numIssuedDist::5                   419408      3.48%     97.43% # Number of insts issued each cycle (Count)
system.cpu0.numIssuedDist::6                   185074      1.53%     98.96% # Number of insts issued each cycle (Count)
system.cpu0.numIssuedDist::7                    83776      0.69%     99.65% # Number of insts issued each cycle (Count)
system.cpu0.numIssuedDist::8                    41784      0.35%    100.00% # Number of insts issued each cycle (Count)
system.cpu0.numIssuedDist::overflows                0      0.00%    100.00% # Number of insts issued each cycle (Count)
system.cpu0.numIssuedDist::min_value                0                       # Number of insts issued each cycle (Count)
system.cpu0.numIssuedDist::max_value                8                       # Number of insts issued each cycle (Count)
system.cpu0.numIssuedDist::total             12065612                       # Number of insts issued each cycle (Count)
system.cpu0.statFuBusy::No_OpClass                  0      0.00%      0.00% # attempts to use FU when none available (Count)
system.cpu0.statFuBusy::IntAlu                  54841     71.46%     71.46% # attempts to use FU when none available (Count)
system.cpu0.statFuBusy::IntMult                     0      0.00%     71.46% # attempts to use FU when none available (Count)
system.cpu0.statFuBusy::IntDiv                      0      0.00%     71.46% # attempts to use FU when none available (Count)
system.cpu0.statFuBusy::FloatAdd                    0      0.00%     71.46% # attempts to use FU when none available (Count)
system.cpu0.statFuBusy::FloatCmp                    0      0.00%     71.46% # attempts to use FU when none available (Count)
system.cpu0.statFuBusy::FloatCvt                    1      0.00%     71.46% # attempts to use FU when none available (Count)
system.cpu0.statFuBusy::FloatMult                   0      0.00%     71.46% # attempts to use FU when none available (Count)
system.cpu0.statFuBusy::FloatMultAcc                0      0.00%     71.46% # attempts to use FU when none available (Count)
system.cpu0.statFuBusy::FloatDiv                    0      0.00%     71.46% # attempts to use FU when none available (Count)
system.cpu0.statFuBusy::FloatMisc                   0      0.00%     71.46% # attempts to use FU when none available (Count)
system.cpu0.statFuBusy::FloatSqrt                   0      0.00%     71.46% # attempts to use FU when none available (Count)
system.cpu0.statFuBusy::SimdAdd                     0      0.00%     71.46% # attempts to use FU when none available (Count)
system.cpu0.statFuBusy::SimdAddAcc                  0      0.00%     71.46% # attempts to use FU when none available (Count)
system.cpu0.statFuBusy::SimdAlu                   122      0.16%     71.62% # attempts to use FU when none available (Count)
system.cpu0.statFuBusy::SimdCmp                     0      0.00%     71.62% # attempts to use FU when none available (Count)
system.cpu0.statFuBusy::SimdCvt                   168      0.22%     71.84% # attempts to use FU when none available (Count)
system.cpu0.statFuBusy::SimdMisc                    0      0.00%     71.84% # attempts to use FU when none available (Count)
system.cpu0.statFuBusy::SimdMult                    0      0.00%     71.84% # attempts to use FU when none available (Count)
system.cpu0.statFuBusy::SimdMultAcc                 0      0.00%     71.84% # attempts to use FU when none available (Count)
system.cpu0.statFuBusy::SimdShift                 206      0.27%     72.11% # attempts to use FU when none available (Count)
system.cpu0.statFuBusy::SimdShiftAcc                0      0.00%     72.11% # attempts to use FU when none available (Count)
system.cpu0.statFuBusy::SimdDiv                     0      0.00%     72.11% # attempts to use FU when none available (Count)
system.cpu0.statFuBusy::SimdSqrt                    0      0.00%     72.11% # attempts to use FU when none available (Count)
system.cpu0.statFuBusy::SimdFloatAdd                0      0.00%     72.11% # attempts to use FU when none available (Count)
system.cpu0.statFuBusy::SimdFloatAlu                0      0.00%     72.11% # attempts to use FU when none available (Count)
system.cpu0.statFuBusy::SimdFloatCmp                0      0.00%     72.11% # attempts to use FU when none available (Count)
system.cpu0.statFuBusy::SimdFloatCvt                0      0.00%     72.11% # attempts to use FU when none available (Count)
system.cpu0.statFuBusy::SimdFloatDiv                0      0.00%     72.11% # attempts to use FU when none available (Count)
system.cpu0.statFuBusy::SimdFloatMisc               0      0.00%     72.11% # attempts to use FU when none available (Count)
system.cpu0.statFuBusy::SimdFloatMult               0      0.00%     72.11% # attempts to use FU when none available (Count)
system.cpu0.statFuBusy::SimdFloatMultAcc            0      0.00%     72.11% # attempts to use FU when none available (Count)
system.cpu0.statFuBusy::SimdFloatSqrt               0      0.00%     72.11% # attempts to use FU when none available (Count)
system.cpu0.statFuBusy::SimdReduceAdd               0      0.00%     72.11% # attempts to use FU when none available (Count)
system.cpu0.statFuBusy::SimdReduceAlu               0      0.00%     72.11% # attempts to use FU when none available (Count)
system.cpu0.statFuBusy::SimdReduceCmp               0      0.00%     72.11% # attempts to use FU when none available (Count)
system.cpu0.statFuBusy::SimdFloatReduceAdd            0      0.00%     72.11% # attempts to use FU when none available (Count)
system.cpu0.statFuBusy::SimdFloatReduceCmp            0      0.00%     72.11% # attempts to use FU when none available (Count)
system.cpu0.statFuBusy::SimdAes                     0      0.00%     72.11% # attempts to use FU when none available (Count)
system.cpu0.statFuBusy::SimdAesMix                  0      0.00%     72.11% # attempts to use FU when none available (Count)
system.cpu0.statFuBusy::SimdSha1Hash                0      0.00%     72.11% # attempts to use FU when none available (Count)
system.cpu0.statFuBusy::SimdSha1Hash2               0      0.00%     72.11% # attempts to use FU when none available (Count)
system.cpu0.statFuBusy::SimdSha256Hash              0      0.00%     72.11% # attempts to use FU when none available (Count)
system.cpu0.statFuBusy::SimdSha256Hash2             0      0.00%     72.11% # attempts to use FU when none available (Count)
system.cpu0.statFuBusy::SimdShaSigma2               0      0.00%     72.11% # attempts to use FU when none available (Count)
system.cpu0.statFuBusy::SimdShaSigma3               0      0.00%     72.11% # attempts to use FU when none available (Count)
system.cpu0.statFuBusy::SimdPredAlu                 0      0.00%     72.11% # attempts to use FU when none available (Count)
system.cpu0.statFuBusy::MemRead                 11929     15.54%     87.65% # attempts to use FU when none available (Count)
system.cpu0.statFuBusy::MemWrite                 7682     10.01%     97.66% # attempts to use FU when none available (Count)
system.cpu0.statFuBusy::FloatMemRead             1334      1.74%     99.40% # attempts to use FU when none available (Count)
system.cpu0.statFuBusy::FloatMemWrite             461      0.60%    100.00% # attempts to use FU when none available (Count)
system.cpu0.statFuBusy::IprAccess                   0      0.00%    100.00% # attempts to use FU when none available (Count)
system.cpu0.statFuBusy::InstPrefetch                0      0.00%    100.00% # attempts to use FU when none available (Count)
system.cpu0.statIssuedInstType_0::No_OpClass        70732      0.49%      0.49% # Number of instructions issued per FU type, per thread (Count)
system.cpu0.statIssuedInstType_0::IntAlu     13104902     91.15%     91.64% # Number of instructions issued per FU type, per thread (Count)
system.cpu0.statIssuedInstType_0::IntMult           34      0.00%     91.64% # Number of instructions issued per FU type, per thread (Count)
system.cpu0.statIssuedInstType_0::IntDiv        38432      0.27%     91.91% # Number of instructions issued per FU type, per thread (Count)
system.cpu0.statIssuedInstType_0::FloatAdd         4228      0.03%     91.94% # Number of instructions issued per FU type, per thread (Count)
system.cpu0.statIssuedInstType_0::FloatCmp            0      0.00%     91.94% # Number of instructions issued per FU type, per thread (Count)
system.cpu0.statIssuedInstType_0::FloatCvt         1440      0.01%     91.95% # Number of instructions issued per FU type, per thread (Count)
system.cpu0.statIssuedInstType_0::FloatMult            0      0.00%     91.95% # Number of instructions issued per FU type, per thread (Count)
system.cpu0.statIssuedInstType_0::FloatMultAcc            0      0.00%     91.95% # Number of instructions issued per FU type, per thread (Count)
system.cpu0.statIssuedInstType_0::FloatDiv            0      0.00%     91.95% # Number of instructions issued per FU type, per thread (Count)
system.cpu0.statIssuedInstType_0::FloatMisc            0      0.00%     91.95% # Number of instructions issued per FU type, per thread (Count)
system.cpu0.statIssuedInstType_0::FloatSqrt            0      0.00%     91.95% # Number of instructions issued per FU type, per thread (Count)
system.cpu0.statIssuedInstType_0::SimdAdd         8424      0.06%     92.00% # Number of instructions issued per FU type, per thread (Count)
system.cpu0.statIssuedInstType_0::SimdAddAcc            0      0.00%     92.00% # Number of instructions issued per FU type, per thread (Count)
system.cpu0.statIssuedInstType_0::SimdAlu        17063      0.12%     92.12% # Number of instructions issued per FU type, per thread (Count)
system.cpu0.statIssuedInstType_0::SimdCmp            0      0.00%     92.12% # Number of instructions issued per FU type, per thread (Count)
system.cpu0.statIssuedInstType_0::SimdCvt        18661      0.13%     92.25% # Number of instructions issued per FU type, per thread (Count)
system.cpu0.statIssuedInstType_0::SimdMisc         8840      0.06%     92.31% # Number of instructions issued per FU type, per thread (Count)
system.cpu0.statIssuedInstType_0::SimdMult            0      0.00%     92.31% # Number of instructions issued per FU type, per thread (Count)
system.cpu0.statIssuedInstType_0::SimdMultAcc            0      0.00%     92.31% # Number of instructions issued per FU type, per thread (Count)
system.cpu0.statIssuedInstType_0::SimdShift         2910      0.02%     92.34% # Number of instructions issued per FU type, per thread (Count)
system.cpu0.statIssuedInstType_0::SimdShiftAcc            0      0.00%     92.34% # Number of instructions issued per FU type, per thread (Count)
system.cpu0.statIssuedInstType_0::SimdDiv            0      0.00%     92.34% # Number of instructions issued per FU type, per thread (Count)
system.cpu0.statIssuedInstType_0::SimdSqrt            0      0.00%     92.34% # Number of instructions issued per FU type, per thread (Count)
system.cpu0.statIssuedInstType_0::SimdFloatAdd            0      0.00%     92.34% # Number of instructions issued per FU type, per thread (Count)
system.cpu0.statIssuedInstType_0::SimdFloatAlu            0      0.00%     92.34% # Number of instructions issued per FU type, per thread (Count)
system.cpu0.statIssuedInstType_0::SimdFloatCmp            0      0.00%     92.34% # Number of instructions issued per FU type, per thread (Count)
system.cpu0.statIssuedInstType_0::SimdFloatCvt            0      0.00%     92.34% # Number of instructions issued per FU type, per thread (Count)
system.cpu0.statIssuedInstType_0::SimdFloatDiv            0      0.00%     92.34% # Number of instructions issued per FU type, per thread (Count)
system.cpu0.statIssuedInstType_0::SimdFloatMisc            0      0.00%     92.34% # Number of instructions issued per FU type, per thread (Count)
system.cpu0.statIssuedInstType_0::SimdFloatMult            0      0.00%     92.34% # Number of instructions issued per FU type, per thread (Count)
system.cpu0.statIssuedInstType_0::SimdFloatMultAcc            0      0.00%     92.34% # Number of instructions issued per FU type, per thread (Count)
system.cpu0.statIssuedInstType_0::SimdFloatSqrt            0      0.00%     92.34% # Number of instructions issued per FU type, per thread (Count)
system.cpu0.statIssuedInstType_0::SimdReduceAdd            0      0.00%     92.34% # Number of instructions issued per FU type, per thread (Count)
system.cpu0.statIssuedInstType_0::SimdReduceAlu            0      0.00%     92.34% # Number of instructions issued per FU type, per thread (Count)
system.cpu0.statIssuedInstType_0::SimdReduceCmp            0      0.00%     92.34% # Number of instructions issued per FU type, per thread (Count)
system.cpu0.statIssuedInstType_0::SimdFloatReduceAdd            0      0.00%     92.34% # Number of instructions issued per FU type, per thread (Count)
system.cpu0.statIssuedInstType_0::SimdFloatReduceCmp            0      0.00%     92.34% # Number of instructions issued per FU type, per thread (Count)
system.cpu0.statIssuedInstType_0::SimdAes            0      0.00%     92.34% # Number of instructions issued per FU type, per thread (Count)
system.cpu0.statIssuedInstType_0::SimdAesMix            0      0.00%     92.34% # Number of instructions issued per FU type, per thread (Count)
system.cpu0.statIssuedInstType_0::SimdSha1Hash            0      0.00%     92.34% # Number of instructions issued per FU type, per thread (Count)
system.cpu0.statIssuedInstType_0::SimdSha1Hash2            0      0.00%     92.34% # Number of instructions issued per FU type, per thread (Count)
system.cpu0.statIssuedInstType_0::SimdSha256Hash            0      0.00%     92.34% # Number of instructions issued per FU type, per thread (Count)
system.cpu0.statIssuedInstType_0::SimdSha256Hash2            0      0.00%     92.34% # Number of instructions issued per FU type, per thread (Count)
system.cpu0.statIssuedInstType_0::SimdShaSigma2            0      0.00%     92.34% # Number of instructions issued per FU type, per thread (Count)
system.cpu0.statIssuedInstType_0::SimdShaSigma3            0      0.00%     92.34% # Number of instructions issued per FU type, per thread (Count)
system.cpu0.statIssuedInstType_0::SimdPredAlu            0      0.00%     92.34% # Number of instructions issued per FU type, per thread (Count)
system.cpu0.statIssuedInstType_0::MemRead       758022      5.27%     97.61% # Number of instructions issued per FU type, per thread (Count)
system.cpu0.statIssuedInstType_0::MemWrite       292172      2.03%     99.64% # Number of instructions issued per FU type, per thread (Count)
system.cpu0.statIssuedInstType_0::FloatMemRead        33738      0.23%     99.87% # Number of instructions issued per FU type, per thread (Count)
system.cpu0.statIssuedInstType_0::FloatMemWrite        18092      0.13%    100.00% # Number of instructions issued per FU type, per thread (Count)
system.cpu0.statIssuedInstType_0::IprAccess            0      0.00%    100.00% # Number of instructions issued per FU type, per thread (Count)
system.cpu0.statIssuedInstType_0::InstPrefetch            0      0.00%    100.00% # Number of instructions issued per FU type, per thread (Count)
system.cpu0.statIssuedInstType_0::total      14377690                       # Number of instructions issued per FU type, per thread (Count)
system.cpu0.issueRate                        1.094831                       # Inst issue rate ((Count/Cycle))
system.cpu0.fuBusy                              76744                       # FU busy when requested (Count)
system.cpu0.fuBusyRate                       0.005338                       # FU busy rate (busy events/executed inst) ((Count/Count))
system.cpu0.intInstQueueReads                40668900                       # Number of integer instruction queue reads (Count)
system.cpu0.intInstQueueWrites               16256256                       # Number of integer instruction queue writes (Count)
system.cpu0.intInstQueueWakeupAccesses       14179745                       # Number of integer instruction queue wakeup accesses (Count)
system.cpu0.fpInstQueueReads                   231648                       # Number of floating instruction queue reads (Count)
system.cpu0.fpInstQueueWrites                  176710                       # Number of floating instruction queue writes (Count)
system.cpu0.fpInstQueueWakeupAccesses          110666                       # Number of floating instruction queue wakeup accesses (Count)
system.cpu0.vecInstQueueReads                       0                       # Number of vector instruction queue reads (Count)
system.cpu0.vecInstQueueWrites                      0                       # Number of vector instruction queue writes (Count)
system.cpu0.vecInstQueueWakeupAccesses              0                       # Number of vector instruction queue wakeup accesses (Count)
system.cpu0.intAluAccesses                   14266874                       # Number of integer alu accesses (Count)
system.cpu0.fpAluAccesses                      116828                       # Number of floating point alu accesses (Count)
system.cpu0.vecAluAccesses                          0                       # Number of vector alu accesses (Count)
system.cpu0.numInsts                         14325167                       # Number of executed instructions (Count)
system.cpu0.numLoadInsts                       781193                       # Number of load instructions executed (Count)
system.cpu0.numSquashedInsts                    52521                       # Number of squashed instructions skipped in execute (Count)
system.cpu0.numSwp                                  0                       # Number of swp insts executed (Count)
system.cpu0.numNop                                  0                       # Number of nop insts executed (Count)
system.cpu0.numRefs                           1087296                       # Number of memory reference insts executed (Count)
system.cpu0.numBranches                        898124                       # Number of branches executed (Count)
system.cpu0.numStoreInsts                      306103                       # Number of stores executed (Count)
system.cpu0.numRate                          1.090831                       # Inst execution rate ((Count/Cycle))
system.cpu0.timesIdled                           2200                       # Number of times that the entire CPU went into an idle state and unscheduled itself (Count)
system.cpu0.idleCycles                        1066726                       # Total number of cycles that the CPU has spent unscheduled due to idling (Cycle)
system.cpu0.committedInsts                    8507756                       # Number of Instructions Simulated (Count)
system.cpu0.committedOps                     13512675                       # Number of Ops (including micro ops) Simulated (Count)
system.cpu0.cpi                              1.543572                       # CPI: Cycles Per Instruction ((Cycle/Count))
system.cpu0.totalCpi                         1.543572                       # CPI: Total CPI of All Threads ((Cycle/Count))
system.cpu0.ipc                              0.647848                       # IPC: Instructions Per Cycle ((Count/Cycle))
system.cpu0.totalIpc                         0.647848                       # IPC: Total IPC of All Threads ((Count/Cycle))
system.cpu0.intRegfileReads                  25037197                       # Number of integer regfile reads (Count)
system.cpu0.intRegfileWrites                 11738866                       # Number of integer regfile writes (Count)
system.cpu0.fpRegfileReads                     150869                       # Number of floating regfile reads (Count)
system.cpu0.fpRegfileWrites                     83618                       # Number of floating regfile writes (Count)
system.cpu0.ccRegfileReads                   16092502                       # number of cc regfile reads (Count)
system.cpu0.ccRegfileWrites                   7806556                       # number of cc regfile writes (Count)
system.cpu0.miscRegfileReads                  2929195                       # number of misc regfile reads (Count)
system.cpu0.miscRegfileWrites                     729                       # number of misc regfile writes (Count)
system.cpu0.MemDepUnit__0.insertedLoads        879185                       # Number of loads inserted to the mem dependence unit. (Count)
system.cpu0.MemDepUnit__0.insertedStores       377212                       # Number of stores inserted to the mem dependence unit. (Count)
system.cpu0.MemDepUnit__0.conflictingLoads       100576                       # Number of conflicting loads. (Count)
system.cpu0.MemDepUnit__0.conflictingStores        84778                       # Number of conflicting stores. (Count)
system.cpu0.MemDepUnit__1.insertedLoads             0                       # Number of loads inserted to the mem dependence unit. (Count)
system.cpu0.MemDepUnit__1.insertedStores            0                       # Number of stores inserted to the mem dependence unit. (Count)
system.cpu0.MemDepUnit__1.conflictingLoads            0                       # Number of conflicting loads. (Count)
system.cpu0.MemDepUnit__1.conflictingStores            0                       # Number of conflicting stores. (Count)
system.cpu0.MemDepUnit__2.insertedLoads             0                       # Number of loads inserted to the mem dependence unit. (Count)
system.cpu0.MemDepUnit__2.insertedStores            0                       # Number of stores inserted to the mem dependence unit. (Count)
system.cpu0.MemDepUnit__2.conflictingLoads            0                       # Number of conflicting loads. (Count)
system.cpu0.MemDepUnit__2.conflictingStores            0                       # Number of conflicting stores. (Count)
system.cpu0.MemDepUnit__3.insertedLoads             0                       # Number of loads inserted to the mem dependence unit. (Count)
system.cpu0.MemDepUnit__3.insertedStores            0                       # Number of stores inserted to the mem dependence unit. (Count)
system.cpu0.MemDepUnit__3.conflictingLoads            0                       # Number of conflicting loads. (Count)
system.cpu0.MemDepUnit__3.conflictingStores            0                       # Number of conflicting stores. (Count)
system.cpu0.branchPred.lookups                1048751                       # Number of BP lookups (Count)
system.cpu0.branchPred.condPredicted           984167                       # Number of conditional branches predicted (Count)
system.cpu0.branchPred.condIncorrect            21654                       # Number of conditional branches incorrect (Count)
system.cpu0.branchPred.BTBLookups              748671                       # Number of BTB lookups (Count)
system.cpu0.branchPred.BTBUpdates                9839                       # Number of BTB updates (Count)
system.cpu0.branchPred.BTBHits                 744786                       # Number of BTB hits (Count)
system.cpu0.branchPred.BTBHitRatio           0.994811                       # BTB Hit Ratio (Ratio)
system.cpu0.branchPred.RASUsed                  14691                       # Number of times the RAS was used to get a target. (Count)
system.cpu0.branchPred.RASIncorrect                 8                       # Number of incorrect RAS predictions. (Count)
system.cpu0.branchPred.indirectLookups           9524                       # Number of indirect predictor lookups. (Count)
system.cpu0.branchPred.indirectHits              5279                       # Number of indirect target hits. (Count)
system.cpu0.branchPred.indirectMisses            4245                       # Number of indirect misses. (Count)
system.cpu0.branchPred.indirectMispredicted         1106                       # Number of mispredicted indirect branches. (Count)
system.cpu0.commit.commitSquashedInsts        1447069                       # The number of squashed insts skipped by commit (Count)
system.cpu0.commit.commitNonSpecStalls            733                       # The number of times commit has been forced to stall to communicate backwards (Count)
system.cpu0.commit.branchMispredicts            22717                       # The number of times a branch was mispredicted (Count)
system.cpu0.commit.numCommittedDist::samples     11859738                       # Number of insts commited each cycle (Count)
system.cpu0.commit.numCommittedDist::mean     1.139374                       # Number of insts commited each cycle (Count)
system.cpu0.commit.numCommittedDist::stdev     2.175973                       # Number of insts commited each cycle (Count)
system.cpu0.commit.numCommittedDist::underflows            0      0.00%      0.00% # Number of insts commited each cycle (Count)
system.cpu0.commit.numCommittedDist::0        7618040     64.23%     64.23% # Number of insts commited each cycle (Count)
system.cpu0.commit.numCommittedDist::1        1633169     13.77%     78.01% # Number of insts commited each cycle (Count)
system.cpu0.commit.numCommittedDist::2         958208      8.08%     86.08% # Number of insts commited each cycle (Count)
system.cpu0.commit.numCommittedDist::3         255218      2.15%     88.24% # Number of insts commited each cycle (Count)
system.cpu0.commit.numCommittedDist::4          56342      0.48%     88.71% # Number of insts commited each cycle (Count)
system.cpu0.commit.numCommittedDist::5         534698      4.51%     93.22% # Number of insts commited each cycle (Count)
system.cpu0.commit.numCommittedDist::6          33566      0.28%     93.50% # Number of insts commited each cycle (Count)
system.cpu0.commit.numCommittedDist::7          66794      0.56%     94.07% # Number of insts commited each cycle (Count)
system.cpu0.commit.numCommittedDist::8         703703      5.93%    100.00% # Number of insts commited each cycle (Count)
system.cpu0.commit.numCommittedDist::overflows            0      0.00%    100.00% # Number of insts commited each cycle (Count)
system.cpu0.commit.numCommittedDist::min_value            0                       # Number of insts commited each cycle (Count)
system.cpu0.commit.numCommittedDist::max_value            8                       # Number of insts commited each cycle (Count)
system.cpu0.commit.numCommittedDist::total     11859738                       # Number of insts commited each cycle (Count)
system.cpu0.commit.instsCommitted             8507756                       # Number of instructions committed (Count)
system.cpu0.commit.opsCommitted              13512675                       # Number of ops (including micro ops) committed (Count)
system.cpu0.commit.memRefs                     922570                       # Number of memory references committed (Count)
system.cpu0.commit.loads                       652695                       # Number of loads committed (Count)
system.cpu0.commit.amos                             0                       # Number of atomic instructions committed (Count)
system.cpu0.commit.membars                          0                       # Number of memory barriers committed (Count)
system.cpu0.commit.branches                    849402                       # Number of branches committed (Count)
system.cpu0.commit.vectorInstructions               0                       # Number of committed Vector instructions. (Count)
system.cpu0.commit.floating                     80786                       # Number of committed floating point instructions. (Count)
system.cpu0.commit.integer                   13395048                       # Number of committed integer instructions. (Count)
system.cpu0.commit.functionCalls                10772                       # Number of function calls committed. (Count)
system.cpu0.commit.committedInstType_0::No_OpClass        62922      0.47%      0.47% # Class of committed instruction (Count)
system.cpu0.commit.committedInstType_0::IntAlu     12446077     92.11%     92.57% # Class of committed instruction (Count)
system.cpu0.commit.committedInstType_0::IntMult           29      0.00%     92.57% # Class of committed instruction (Count)
system.cpu0.commit.committedInstType_0::IntDiv        36080      0.27%     92.84% # Class of committed instruction (Count)
system.cpu0.commit.committedInstType_0::FloatAdd         3064      0.02%     92.86% # Class of committed instruction (Count)
system.cpu0.commit.committedInstType_0::FloatCmp            0      0.00%     92.86% # Class of committed instruction (Count)
system.cpu0.commit.committedInstType_0::FloatCvt         1296      0.01%     92.87% # Class of committed instruction (Count)
system.cpu0.commit.committedInstType_0::FloatMult            0      0.00%     92.87% # Class of committed instruction (Count)
system.cpu0.commit.committedInstType_0::FloatMultAcc            0      0.00%     92.87% # Class of committed instruction (Count)
system.cpu0.commit.committedInstType_0::FloatDiv            0      0.00%     92.87% # Class of committed instruction (Count)
system.cpu0.commit.committedInstType_0::FloatMisc            0      0.00%     92.87% # Class of committed instruction (Count)
system.cpu0.commit.committedInstType_0::FloatSqrt            0      0.00%     92.87% # Class of committed instruction (Count)
system.cpu0.commit.committedInstType_0::SimdAdd         6678      0.05%     92.92% # Class of committed instruction (Count)
system.cpu0.commit.committedInstType_0::SimdAddAcc            0      0.00%     92.92% # Class of committed instruction (Count)
system.cpu0.commit.committedInstType_0::SimdAlu        12106      0.09%     93.01% # Class of committed instruction (Count)
system.cpu0.commit.committedInstType_0::SimdCmp            0      0.00%     93.01% # Class of committed instruction (Count)
system.cpu0.commit.committedInstType_0::SimdCvt        13052      0.10%     93.11% # Class of committed instruction (Count)
system.cpu0.commit.committedInstType_0::SimdMisc         7088      0.05%     93.16% # Class of committed instruction (Count)
system.cpu0.commit.committedInstType_0::SimdMult            0      0.00%     93.16% # Class of committed instruction (Count)
system.cpu0.commit.committedInstType_0::SimdMultAcc            0      0.00%     93.16% # Class of committed instruction (Count)
system.cpu0.commit.committedInstType_0::SimdShift         1713      0.01%     93.17% # Class of committed instruction (Count)
system.cpu0.commit.committedInstType_0::SimdShiftAcc            0      0.00%     93.17% # Class of committed instruction (Count)
system.cpu0.commit.committedInstType_0::SimdDiv            0      0.00%     93.17% # Class of committed instruction (Count)
system.cpu0.commit.committedInstType_0::SimdSqrt            0      0.00%     93.17% # Class of committed instruction (Count)
system.cpu0.commit.committedInstType_0::SimdFloatAdd            0      0.00%     93.17% # Class of committed instruction (Count)
system.cpu0.commit.committedInstType_0::SimdFloatAlu            0      0.00%     93.17% # Class of committed instruction (Count)
system.cpu0.commit.committedInstType_0::SimdFloatCmp            0      0.00%     93.17% # Class of committed instruction (Count)
system.cpu0.commit.committedInstType_0::SimdFloatCvt            0      0.00%     93.17% # Class of committed instruction (Count)
system.cpu0.commit.committedInstType_0::SimdFloatDiv            0      0.00%     93.17% # Class of committed instruction (Count)
system.cpu0.commit.committedInstType_0::SimdFloatMisc            0      0.00%     93.17% # Class of committed instruction (Count)
system.cpu0.commit.committedInstType_0::SimdFloatMult            0      0.00%     93.17% # Class of committed instruction (Count)
system.cpu0.commit.committedInstType_0::SimdFloatMultAcc            0      0.00%     93.17% # Class of committed instruction (Count)
system.cpu0.commit.committedInstType_0::SimdFloatSqrt            0      0.00%     93.17% # Class of committed instruction (Count)
system.cpu0.commit.committedInstType_0::SimdReduceAdd            0      0.00%     93.17% # Class of committed instruction (Count)
system.cpu0.commit.committedInstType_0::SimdReduceAlu            0      0.00%     93.17% # Class of committed instruction (Count)
system.cpu0.commit.committedInstType_0::SimdReduceCmp            0      0.00%     93.17% # Class of committed instruction (Count)
system.cpu0.commit.committedInstType_0::SimdFloatReduceAdd            0      0.00%     93.17% # Class of committed instruction (Count)
system.cpu0.commit.committedInstType_0::SimdFloatReduceCmp            0      0.00%     93.17% # Class of committed instruction (Count)
system.cpu0.commit.committedInstType_0::SimdAes            0      0.00%     93.17% # Class of committed instruction (Count)
system.cpu0.commit.committedInstType_0::SimdAesMix            0      0.00%     93.17% # Class of committed instruction (Count)
system.cpu0.commit.committedInstType_0::SimdSha1Hash            0      0.00%     93.17% # Class of committed instruction (Count)
system.cpu0.commit.committedInstType_0::SimdSha1Hash2            0      0.00%     93.17% # Class of committed instruction (Count)
system.cpu0.commit.committedInstType_0::SimdSha256Hash            0      0.00%     93.17% # Class of committed instruction (Count)
system.cpu0.commit.committedInstType_0::SimdSha256Hash2            0      0.00%     93.17% # Class of committed instruction (Count)
system.cpu0.commit.committedInstType_0::SimdShaSigma2            0      0.00%     93.17% # Class of committed instruction (Count)
system.cpu0.commit.committedInstType_0::SimdShaSigma3            0      0.00%     93.17% # Class of committed instruction (Count)
system.cpu0.commit.committedInstType_0::SimdPredAlu            0      0.00%     93.17% # Class of committed instruction (Count)
system.cpu0.commit.committedInstType_0::MemRead       631690      4.67%     97.85% # Class of committed instruction (Count)
system.cpu0.commit.committedInstType_0::MemWrite       255979      1.89%     99.74% # Class of committed instruction (Count)
system.cpu0.commit.committedInstType_0::FloatMemRead        21005      0.16%     99.90% # Class of committed instruction (Count)
system.cpu0.commit.committedInstType_0::FloatMemWrite        13896      0.10%    100.00% # Class of committed instruction (Count)
system.cpu0.commit.committedInstType_0::IprAccess            0      0.00%    100.00% # Class of committed instruction (Count)
system.cpu0.commit.committedInstType_0::InstPrefetch            0      0.00%    100.00% # Class of committed instruction (Count)
system.cpu0.commit.committedInstType_0::total     13512675                       # Class of committed instruction (Count)
system.cpu0.commit.commitEligibleSamples       703703                       # number cycles where commit BW limit reached (Cycle)
system.cpu0.decode.idleCycles                  871603                       # Number of cycles decode is idle (Cycle)
system.cpu0.decode.blockedCycles              9138561                       # Number of cycles decode is blocked (Cycle)
system.cpu0.decode.runCycles                   890509                       # Number of cycles decode is running (Cycle)
system.cpu0.decode.unblockCycles              1133983                       # Number of cycles decode is unblocking (Cycle)
system.cpu0.decode.squashCycles                 30956                       # Number of cycles decode is squashing (Cycle)
system.cpu0.decode.branchResolved              715280                       # Number of times decode resolved a branch (Count)
system.cpu0.decode.branchMispred                 1082                       # Number of times decode detected a branch misprediction (Count)
system.cpu0.decode.decodedInsts              15346172                       # Number of instructions handled by decode (Count)
system.cpu0.decode.squashedInsts                 5099                       # Number of squashed instructions handled by decode (Count)
system.cpu0.fetch.icacheStallCycles           1317916                       # Number of cycles fetch is stalled on an Icache miss (Cycle)
system.cpu0.fetch.insts                       9831795                       # Number of instructions fetch has processed (Count)
system.cpu0.fetch.branches                    1048751                       # Number of branches that fetch encountered (Count)
system.cpu0.fetch.predictedBranches            764756                       # Number of branches that fetch has predicted taken (Count)
system.cpu0.fetch.cycles                     10487608                       # Number of cycles fetch has run and was not squashing or blocked (Cycle)
system.cpu0.fetch.squashCycles                  64030                       # Number of cycles fetch has spent squashing (Cycle)
system.cpu0.fetch.miscStallCycles               13443                       # Number of cycles fetch has spent waiting on interrupts, or bad addresses, or out of MSHRs (Cycle)
system.cpu0.fetch.pendingTrapStallCycles        13819                       # Number of stall cycles due to pending traps (Cycle)
system.cpu0.fetch.icacheWaitRetryStallCycles       200811                       # Number of stall cycles due to full MSHR (Cycle)
system.cpu0.fetch.cacheLines                  1126591                       # Number of cache lines fetched (Count)
system.cpu0.fetch.icacheSquashes                 7092                       # Number of outstanding Icache misses that were squashed (Count)
system.cpu0.fetch.nisnDist::samples          12065612                       # Number of instructions fetched each cycle (Total) (Count)
system.cpu0.fetch.nisnDist::mean             1.317298                       # Number of instructions fetched each cycle (Total) (Count)
system.cpu0.fetch.nisnDist::stdev            2.681344                       # Number of instructions fetched each cycle (Total) (Count)
system.cpu0.fetch.nisnDist::underflows              0      0.00%      0.00% # Number of instructions fetched each cycle (Total) (Count)
system.cpu0.fetch.nisnDist::0                 9306720     77.13%     77.13% # Number of instructions fetched each cycle (Total) (Count)
system.cpu0.fetch.nisnDist::1                  171437      1.42%     78.56% # Number of instructions fetched each cycle (Total) (Count)
system.cpu0.fetch.nisnDist::2                  185693      1.54%     80.09% # Number of instructions fetched each cycle (Total) (Count)
system.cpu0.fetch.nisnDist::3                  253674      2.10%     82.20% # Number of instructions fetched each cycle (Total) (Count)
system.cpu0.fetch.nisnDist::4                  357976      2.97%     85.16% # Number of instructions fetched each cycle (Total) (Count)
system.cpu0.fetch.nisnDist::5                  209962      1.74%     86.90% # Number of instructions fetched each cycle (Total) (Count)
system.cpu0.fetch.nisnDist::6                  185942      1.54%     88.44% # Number of instructions fetched each cycle (Total) (Count)
system.cpu0.fetch.nisnDist::7                  160871      1.33%     89.78% # Number of instructions fetched each cycle (Total) (Count)
system.cpu0.fetch.nisnDist::8                 1233337     10.22%    100.00% # Number of instructions fetched each cycle (Total) (Count)
system.cpu0.fetch.nisnDist::overflows               0      0.00%    100.00% # Number of instructions fetched each cycle (Total) (Count)
system.cpu0.fetch.nisnDist::min_value               0                       # Number of instructions fetched each cycle (Total) (Count)
system.cpu0.fetch.nisnDist::max_value               8                       # Number of instructions fetched each cycle (Total) (Count)
system.cpu0.fetch.nisnDist::total            12065612                       # Number of instructions fetched each cycle (Total) (Count)
system.cpu0.fetch.branchRate                 0.079860                       # Number of branch fetches per cycle (Ratio)
system.cpu0.fetch.rate                       0.748671                       # Number of inst fetches per cycle ((Count/Cycle))
system.cpu0.iew.idleCycles                          0                       # Number of cycles IEW is idle (Cycle)
system.cpu0.iew.squashCycles                    30956                       # Number of cycles IEW is squashing (Cycle)
system.cpu0.iew.blockCycles                   4956428                       # Number of cycles IEW is blocking (Cycle)
system.cpu0.iew.unblockCycles                  138505                       # Number of cycles IEW is unblocking (Cycle)
system.cpu0.iew.dispatchedInsts              14969012                       # Number of instructions dispatched to IQ (Count)
system.cpu0.iew.dispSquashedInsts                2321                       # Number of squashed instructions skipped by dispatch (Count)
system.cpu0.iew.dispLoadInsts                  879185                       # Number of dispatched load instructions (Count)
system.cpu0.iew.dispStoreInsts                 377212                       # Number of dispatched store instructions (Count)
system.cpu0.iew.dispNonSpecInsts                  749                       # Number of dispatched non-speculative instructions (Count)
system.cpu0.iew.iqFullEvents                     7295                       # Number of times the IQ has become full, causing a stall (Count)
system.cpu0.iew.lsqFullEvents                  126081                       # Number of times the LSQ has become full, causing a stall (Count)
system.cpu0.iew.memOrderViolationEvents          7727                       # Number of memory order violations (Count)
system.cpu0.iew.predictedTakenIncorrect         11342                       # Number of branches that were predicted taken incorrectly (Count)
system.cpu0.iew.predictedNotTakenIncorrect        13564                       # Number of branches that were predicted not taken incorrectly (Count)
system.cpu0.iew.branchMispredicts               24906                       # Number of branch mispredicts detected at execute (Count)
system.cpu0.iew.instsToCommit                14304326                       # Cumulative count of insts sent to commit (Count)
system.cpu0.iew.writebackCount               14290411                       # Cumulative count of insts written-back (Count)
system.cpu0.iew.producerInst                 12355879                       # Number of instructions producing a value (Count)
system.cpu0.iew.consumerInst                 30343544                       # Number of instructions consuming a value (Count)
system.cpu0.iew.wbRate                       1.088185                       # Insts written-back per cycle ((Count/Cycle))
system.cpu0.iew.wbFanout                     0.407200                       # Average fanout of values written-back ((Count/Count))
system.cpu0.interrupts.clk_domain.clock          8000                       # Clock period in ticks (Tick)
system.cpu0.lsq0.forwLoads                      60213                       # Number of loads that had data forwarded from stores (Count)
system.cpu0.lsq0.squashedLoads                 226488                       # Number of loads squashed (Count)
system.cpu0.lsq0.ignoredResponses                  97                       # Number of memory responses ignored because the instruction is squashed (Count)
system.cpu0.lsq0.memOrderViolation               7727                       # Number of memory ordering violations (Count)
system.cpu0.lsq0.squashedStores                107337                       # Number of stores squashed (Count)
system.cpu0.lsq0.rescheduledLoads                 289                       # Number of loads that were rescheduled (Count)
system.cpu0.lsq0.blockedByCache                  2136                       # Number of times an access to memory failed due to the cache being blocked (Count)
system.cpu0.lsq0.loadToUse::samples            652617                       # Distribution of cycle latency between the first time a load is issued and its completion (Unspecified)
system.cpu0.lsq0.loadToUse::mean            49.524281                       # Distribution of cycle latency between the first time a load is issued and its completion (Unspecified)
system.cpu0.lsq0.loadToUse::stdev          187.084836                       # Distribution of cycle latency between the first time a load is issued and its completion (Unspecified)
system.cpu0.lsq0.loadToUse::0-9                607329     93.06%     93.06% # Distribution of cycle latency between the first time a load is issued and its completion (Unspecified)
system.cpu0.lsq0.loadToUse::10-19                 180      0.03%     93.09% # Distribution of cycle latency between the first time a load is issued and its completion (Unspecified)
system.cpu0.lsq0.loadToUse::20-29                 105      0.02%     93.10% # Distribution of cycle latency between the first time a load is issued and its completion (Unspecified)
system.cpu0.lsq0.loadToUse::30-39                  90      0.01%     93.12% # Distribution of cycle latency between the first time a load is issued and its completion (Unspecified)
system.cpu0.lsq0.loadToUse::40-49                  69      0.01%     93.13% # Distribution of cycle latency between the first time a load is issued and its completion (Unspecified)
system.cpu0.lsq0.loadToUse::50-59                 158      0.02%     93.15% # Distribution of cycle latency between the first time a load is issued and its completion (Unspecified)
system.cpu0.lsq0.loadToUse::60-69                 137      0.02%     93.17% # Distribution of cycle latency between the first time a load is issued and its completion (Unspecified)
system.cpu0.lsq0.loadToUse::70-79                  88      0.01%     93.19% # Distribution of cycle latency between the first time a load is issued and its completion (Unspecified)
system.cpu0.lsq0.loadToUse::80-89                  84      0.01%     93.20% # Distribution of cycle latency between the first time a load is issued and its completion (Unspecified)
system.cpu0.lsq0.loadToUse::90-99                  70      0.01%     93.21% # Distribution of cycle latency between the first time a load is issued and its completion (Unspecified)
system.cpu0.lsq0.loadToUse::100-109                79      0.01%     93.22% # Distribution of cycle latency between the first time a load is issued and its completion (Unspecified)
system.cpu0.lsq0.loadToUse::110-119                88      0.01%     93.24% # Distribution of cycle latency between the first time a load is issued and its completion (Unspecified)
system.cpu0.lsq0.loadToUse::120-129                50      0.01%     93.24% # Distribution of cycle latency between the first time a load is issued and its completion (Unspecified)
system.cpu0.lsq0.loadToUse::130-139                34      0.01%     93.25% # Distribution of cycle latency between the first time a load is issued and its completion (Unspecified)
system.cpu0.lsq0.loadToUse::140-149                53      0.01%     93.26% # Distribution of cycle latency between the first time a load is issued and its completion (Unspecified)
system.cpu0.lsq0.loadToUse::150-159                54      0.01%     93.27% # Distribution of cycle latency between the first time a load is issued and its completion (Unspecified)
system.cpu0.lsq0.loadToUse::160-169                58      0.01%     93.27% # Distribution of cycle latency between the first time a load is issued and its completion (Unspecified)
system.cpu0.lsq0.loadToUse::170-179               140      0.02%     93.30% # Distribution of cycle latency between the first time a load is issued and its completion (Unspecified)
system.cpu0.lsq0.loadToUse::180-189               578      0.09%     93.38% # Distribution of cycle latency between the first time a load is issued and its completion (Unspecified)
system.cpu0.lsq0.loadToUse::190-199                40      0.01%     93.39% # Distribution of cycle latency between the first time a load is issued and its completion (Unspecified)
system.cpu0.lsq0.loadToUse::200-209                52      0.01%     93.40% # Distribution of cycle latency between the first time a load is issued and its completion (Unspecified)
system.cpu0.lsq0.loadToUse::210-219                70      0.01%     93.41% # Distribution of cycle latency between the first time a load is issued and its completion (Unspecified)
system.cpu0.lsq0.loadToUse::220-229                97      0.01%     93.42% # Distribution of cycle latency between the first time a load is issued and its completion (Unspecified)
system.cpu0.lsq0.loadToUse::230-239               191      0.03%     93.45% # Distribution of cycle latency between the first time a load is issued and its completion (Unspecified)
system.cpu0.lsq0.loadToUse::240-249              1037      0.16%     93.61% # Distribution of cycle latency between the first time a load is issued and its completion (Unspecified)
system.cpu0.lsq0.loadToUse::250-259                66      0.01%     93.62% # Distribution of cycle latency between the first time a load is issued and its completion (Unspecified)
system.cpu0.lsq0.loadToUse::260-269                68      0.01%     93.63% # Distribution of cycle latency between the first time a load is issued and its completion (Unspecified)
system.cpu0.lsq0.loadToUse::270-279                67      0.01%     93.64% # Distribution of cycle latency between the first time a load is issued and its completion (Unspecified)
system.cpu0.lsq0.loadToUse::280-289               175      0.03%     93.67% # Distribution of cycle latency between the first time a load is issued and its completion (Unspecified)
system.cpu0.lsq0.loadToUse::290-299               263      0.04%     93.71% # Distribution of cycle latency between the first time a load is issued and its completion (Unspecified)
system.cpu0.lsq0.loadToUse::overflows           41047      6.29%    100.00% # Distribution of cycle latency between the first time a load is issued and its completion (Unspecified)
system.cpu0.lsq0.loadToUse::min_value               2                       # Distribution of cycle latency between the first time a load is issued and its completion (Unspecified)
system.cpu0.lsq0.loadToUse::max_value            2393                       # Distribution of cycle latency between the first time a load is issued and its completion (Unspecified)
system.cpu0.lsq0.loadToUse::total              652617                       # Distribution of cycle latency between the first time a load is issued and its completion (Unspecified)
system.cpu0.mmu.dtb.rdAccesses                 775538                       # TLB accesses on read requests (Count)
system.cpu0.mmu.dtb.wrAccesses                 306155                       # TLB accesses on write requests (Count)
system.cpu0.mmu.dtb.rdMisses                     3117                       # TLB misses on read requests (Count)
system.cpu0.mmu.dtb.wrMisses                      408                       # TLB misses on write requests (Count)
system.cpu0.mmu.dtb.walker.power_state.pwrStateResidencyTicks::UNDEFINED   6566168500                       # Cumulative time (in ticks) in various power states (Tick)
system.cpu0.mmu.itb.rdAccesses                      0                       # TLB accesses on read requests (Count)
system.cpu0.mmu.itb.wrAccesses                1128786                       # TLB accesses on write requests (Count)
system.cpu0.mmu.itb.rdMisses                        0                       # TLB misses on read requests (Count)
system.cpu0.mmu.itb.wrMisses                     2750                       # TLB misses on write requests (Count)
system.cpu0.mmu.itb.walker.power_state.pwrStateResidencyTicks::UNDEFINED   6566168500                       # Cumulative time (in ticks) in various power states (Tick)
system.cpu0.power_state.pwrStateResidencyTicks::ON   6566168500                       # Cumulative time (in ticks) in various power states (Tick)
system.cpu0.rename.squashCycles                 30956                       # Number of cycles rename is squashing (Cycle)
system.cpu0.rename.idleCycles                 1281787                       # Number of cycles rename is idle (Cycle)
system.cpu0.rename.blockCycles                6548760                       # Number of cycles rename is blocking (Cycle)
system.cpu0.rename.serializeStallCycles         20366                       # count of cycles rename stalled for serializing inst (Cycle)
system.cpu0.rename.runCycles                  1593622                       # Number of cycles rename is running (Cycle)
system.cpu0.rename.unblockCycles              2590121                       # Number of cycles rename is unblocking (Cycle)
system.cpu0.rename.renamedInsts              15174842                       # Number of instructions processed by rename (Count)
system.cpu0.rename.ROBFullEvents               114398                       # Number of times rename has blocked due to ROB full (Count)
system.cpu0.rename.IQFullEvents               1570720                       # Number of times rename has blocked due to IQ full (Count)
system.cpu0.rename.LQFullEvents                150741                       # Number of times rename has blocked due to LQ full (Count)
system.cpu0.rename.SQFullEvents                495949                       # Number of times rename has blocked due to SQ full (Count)
system.cpu0.rename.fullRegistersEvents           2872                       # Number of times there has been no free registers (Count)
system.cpu0.rename.renamedOperands           34431622                       # Number of destination operands rename has renamed (Count)
system.cpu0.rename.lookups                   66745002                       # Number of register rename lookups that rename has made (Count)
system.cpu0.rename.intLookups                26558896                       # Number of integer rename lookups (Count)
system.cpu0.rename.fpLookups                   188594                       # Number of floating rename lookups (Count)
system.cpu0.rename.committedMaps             31341139                       # Number of HB maps that are committed (Count)
system.cpu0.rename.undoneMaps                 3090212                       # Number of HB maps that are undone due to squashing (Count)
system.cpu0.rename.serializing                    757                       # count of serializing insts renamed (Count)
system.cpu0.rename.tempSerializing                742                       # count of temporary serializing insts renamed (Count)
system.cpu0.rename.skidInsts                  5240540                       # count of insts added to the skid buffer (Count)
system.cpu0.rob.reads                        26108239                       # The number of ROB reads (Count)
system.cpu0.rob.writes                       30125702                       # The number of ROB writes (Count)
system.cpu0.thread_0.numInsts                 8507756                       # Number of Instructions committed (Count)
system.cpu0.thread_0.numOps                  13512675                       # Number of Ops committed (Count)
system.cpu0.thread_0.numMemRefs                     0                       # Number of Memory References (Count)
system.cpu0.workload.numSyscalls                   62                       # Number of system calls (Count)
system.cpu1.numCycles                        13132338                       # Number of cpu cycles simulated (Cycle)
system.cpu1.numWorkItemsStarted                     0                       # Number of work items this cpu started (Count)
system.cpu1.numWorkItemsCompleted                   0                       # Number of work items this cpu completed (Count)
system.cpu1.instsAdded                       16321539                       # Number of instructions added to the IQ (excludes non-spec) (Count)
system.cpu1.nonSpecInstsAdded                     881                       # Number of non-speculative instructions added to the IQ (Count)
system.cpu1.instsIssued                      15700251                       # Number of instructions issued (Count)
system.cpu1.squashedInstsIssued                  2851                       # Number of squashed instructions issued (Count)
system.cpu1.squashedInstsExamined             1511011                       # Number of squashed instructions iterated over during squash; mainly for profiling (Count)
system.cpu1.squashedOperandsExamined          3184187                       # Number of squashed operands that are examined and possibly removed from graph (Count)
system.cpu1.squashedNonSpecRemoved                148                       # Number of squashed non-spec instructions that were removed (Count)
system.cpu1.numIssuedDist::samples           12162115                       # Number of insts issued each cycle (Count)
system.cpu1.numIssuedDist::mean              1.290915                       # Number of insts issued each cycle (Count)
system.cpu1.numIssuedDist::stdev             1.783834                       # Number of insts issued each cycle (Count)
system.cpu1.numIssuedDist::underflows               0      0.00%      0.00% # Number of insts issued each cycle (Count)
system.cpu1.numIssuedDist::0                  7116595     58.51%     58.51% # Number of insts issued each cycle (Count)
system.cpu1.numIssuedDist::1                   481733      3.96%     62.48% # Number of insts issued each cycle (Count)
system.cpu1.numIssuedDist::2                  1389371     11.42%     73.90% # Number of insts issued each cycle (Count)
system.cpu1.numIssuedDist::3                  1525914     12.55%     86.45% # Number of insts issued each cycle (Count)
system.cpu1.numIssuedDist::4                   871783      7.17%     93.61% # Number of insts issued each cycle (Count)
system.cpu1.numIssuedDist::5                   455635      3.75%     97.36% # Number of insts issued each cycle (Count)
system.cpu1.numIssuedDist::6                   193123      1.59%     98.95% # Number of insts issued each cycle (Count)
system.cpu1.numIssuedDist::7                    85699      0.70%     99.65% # Number of insts issued each cycle (Count)
system.cpu1.numIssuedDist::8                    42262      0.35%    100.00% # Number of insts issued each cycle (Count)
system.cpu1.numIssuedDist::overflows                0      0.00%    100.00% # Number of insts issued each cycle (Count)
system.cpu1.numIssuedDist::min_value                0                       # Number of insts issued each cycle (Count)
system.cpu1.numIssuedDist::max_value                8                       # Number of insts issued each cycle (Count)
system.cpu1.numIssuedDist::total             12162115                       # Number of insts issued each cycle (Count)
system.cpu1.statFuBusy::No_OpClass                  0      0.00%      0.00% # attempts to use FU when none available (Count)
system.cpu1.statFuBusy::IntAlu                  56640     72.11%     72.11% # attempts to use FU when none available (Count)
system.cpu1.statFuBusy::IntMult                     0      0.00%     72.11% # attempts to use FU when none available (Count)
system.cpu1.statFuBusy::IntDiv                      0      0.00%     72.11% # attempts to use FU when none available (Count)
system.cpu1.statFuBusy::FloatAdd                    0      0.00%     72.11% # attempts to use FU when none available (Count)
system.cpu1.statFuBusy::FloatCmp                    0      0.00%     72.11% # attempts to use FU when none available (Count)
system.cpu1.statFuBusy::FloatCvt                    0      0.00%     72.11% # attempts to use FU when none available (Count)
system.cpu1.statFuBusy::FloatMult                   0      0.00%     72.11% # attempts to use FU when none available (Count)
system.cpu1.statFuBusy::FloatMultAcc                0      0.00%     72.11% # attempts to use FU when none available (Count)
system.cpu1.statFuBusy::FloatDiv                    0      0.00%     72.11% # attempts to use FU when none available (Count)
system.cpu1.statFuBusy::FloatMisc                   0      0.00%     72.11% # attempts to use FU when none available (Count)
system.cpu1.statFuBusy::FloatSqrt                   0      0.00%     72.11% # attempts to use FU when none available (Count)
system.cpu1.statFuBusy::SimdAdd                     0      0.00%     72.11% # attempts to use FU when none available (Count)
system.cpu1.statFuBusy::SimdAddAcc                  0      0.00%     72.11% # attempts to use FU when none available (Count)
system.cpu1.statFuBusy::SimdAlu                   121      0.15%     72.27% # attempts to use FU when none available (Count)
system.cpu1.statFuBusy::SimdCmp                     0      0.00%     72.27% # attempts to use FU when none available (Count)
system.cpu1.statFuBusy::SimdCvt                   166      0.21%     72.48% # attempts to use FU when none available (Count)
system.cpu1.statFuBusy::SimdMisc                    0      0.00%     72.48% # attempts to use FU when none available (Count)
system.cpu1.statFuBusy::SimdMult                    0      0.00%     72.48% # attempts to use FU when none available (Count)
system.cpu1.statFuBusy::SimdMultAcc                 0      0.00%     72.48% # attempts to use FU when none available (Count)
system.cpu1.statFuBusy::SimdShift                 208      0.26%     72.74% # attempts to use FU when none available (Count)
system.cpu1.statFuBusy::SimdShiftAcc                0      0.00%     72.74% # attempts to use FU when none available (Count)
system.cpu1.statFuBusy::SimdDiv                     0      0.00%     72.74% # attempts to use FU when none available (Count)
system.cpu1.statFuBusy::SimdSqrt                    0      0.00%     72.74% # attempts to use FU when none available (Count)
system.cpu1.statFuBusy::SimdFloatAdd                0      0.00%     72.74% # attempts to use FU when none available (Count)
system.cpu1.statFuBusy::SimdFloatAlu                0      0.00%     72.74% # attempts to use FU when none available (Count)
system.cpu1.statFuBusy::SimdFloatCmp                0      0.00%     72.74% # attempts to use FU when none available (Count)
system.cpu1.statFuBusy::SimdFloatCvt                0      0.00%     72.74% # attempts to use FU when none available (Count)
system.cpu1.statFuBusy::SimdFloatDiv                0      0.00%     72.74% # attempts to use FU when none available (Count)
system.cpu1.statFuBusy::SimdFloatMisc               0      0.00%     72.74% # attempts to use FU when none available (Count)
system.cpu1.statFuBusy::SimdFloatMult               0      0.00%     72.74% # attempts to use FU when none available (Count)
system.cpu1.statFuBusy::SimdFloatMultAcc            0      0.00%     72.74% # attempts to use FU when none available (Count)
system.cpu1.statFuBusy::SimdFloatSqrt               0      0.00%     72.74% # attempts to use FU when none available (Count)
system.cpu1.statFuBusy::SimdReduceAdd               0      0.00%     72.74% # attempts to use FU when none available (Count)
system.cpu1.statFuBusy::SimdReduceAlu               0      0.00%     72.74% # attempts to use FU when none available (Count)
system.cpu1.statFuBusy::SimdReduceCmp               0      0.00%     72.74% # attempts to use FU when none available (Count)
system.cpu1.statFuBusy::SimdFloatReduceAdd            0      0.00%     72.74% # attempts to use FU when none available (Count)
system.cpu1.statFuBusy::SimdFloatReduceCmp            0      0.00%     72.74% # attempts to use FU when none available (Count)
system.cpu1.statFuBusy::SimdAes                     0      0.00%     72.74% # attempts to use FU when none available (Count)
system.cpu1.statFuBusy::SimdAesMix                  0      0.00%     72.74% # attempts to use FU when none available (Count)
system.cpu1.statFuBusy::SimdSha1Hash                0      0.00%     72.74% # attempts to use FU when none available (Count)
system.cpu1.statFuBusy::SimdSha1Hash2               0      0.00%     72.74% # attempts to use FU when none available (Count)
system.cpu1.statFuBusy::SimdSha256Hash              0      0.00%     72.74% # attempts to use FU when none available (Count)
system.cpu1.statFuBusy::SimdSha256Hash2             0      0.00%     72.74% # attempts to use FU when none available (Count)
system.cpu1.statFuBusy::SimdShaSigma2               0      0.00%     72.74% # attempts to use FU when none available (Count)
system.cpu1.statFuBusy::SimdShaSigma3               0      0.00%     72.74% # attempts to use FU when none available (Count)
system.cpu1.statFuBusy::SimdPredAlu                 0      0.00%     72.74% # attempts to use FU when none available (Count)
system.cpu1.statFuBusy::MemRead                 11924     15.18%     87.92% # attempts to use FU when none available (Count)
system.cpu1.statFuBusy::MemWrite                 7684      9.78%     97.71% # attempts to use FU when none available (Count)
system.cpu1.statFuBusy::FloatMemRead             1339      1.70%     99.41% # attempts to use FU when none available (Count)
system.cpu1.statFuBusy::FloatMemWrite             462      0.59%    100.00% # attempts to use FU when none available (Count)
system.cpu1.statFuBusy::IprAccess                   0      0.00%    100.00% # attempts to use FU when none available (Count)
system.cpu1.statFuBusy::InstPrefetch                0      0.00%    100.00% # attempts to use FU when none available (Count)
system.cpu1.statIssuedInstType_0::No_OpClass        77577      0.49%      0.49% # Number of instructions issued per FU type, per thread (Count)
system.cpu1.statIssuedInstType_0::IntAlu     14385279     91.62%     92.12% # Number of instructions issued per FU type, per thread (Count)
system.cpu1.statIssuedInstType_0::IntMult           38      0.00%     92.12% # Number of instructions issued per FU type, per thread (Count)
system.cpu1.statIssuedInstType_0::IntDiv        38432      0.24%     92.36% # Number of instructions issued per FU type, per thread (Count)
system.cpu1.statIssuedInstType_0::FloatAdd         4221      0.03%     92.39% # Number of instructions issued per FU type, per thread (Count)
system.cpu1.statIssuedInstType_0::FloatCmp            0      0.00%     92.39% # Number of instructions issued per FU type, per thread (Count)
system.cpu1.statIssuedInstType_0::FloatCvt         1426      0.01%     92.40% # Number of instructions issued per FU type, per thread (Count)
system.cpu1.statIssuedInstType_0::FloatMult            0      0.00%     92.40% # Number of instructions issued per FU type, per thread (Count)
system.cpu1.statIssuedInstType_0::FloatMultAcc            0      0.00%     92.40% # Number of instructions issued per FU type, per thread (Count)
system.cpu1.statIssuedInstType_0::FloatDiv            0      0.00%     92.40% # Number of instructions issued per FU type, per thread (Count)
system.cpu1.statIssuedInstType_0::FloatMisc            0      0.00%     92.40% # Number of instructions issued per FU type, per thread (Count)
system.cpu1.statIssuedInstType_0::FloatSqrt            0      0.00%     92.40% # Number of instructions issued per FU type, per thread (Count)
system.cpu1.statIssuedInstType_0::SimdAdd         8421      0.05%     92.45% # Number of instructions issued per FU type, per thread (Count)
system.cpu1.statIssuedInstType_0::SimdAddAcc            0      0.00%     92.45% # Number of instructions issued per FU type, per thread (Count)
system.cpu1.statIssuedInstType_0::SimdAlu        17064      0.11%     92.56% # Number of instructions issued per FU type, per thread (Count)
system.cpu1.statIssuedInstType_0::SimdCmp            0      0.00%     92.56% # Number of instructions issued per FU type, per thread (Count)
system.cpu1.statIssuedInstType_0::SimdCvt        18662      0.12%     92.68% # Number of instructions issued per FU type, per thread (Count)
system.cpu1.statIssuedInstType_0::SimdMisc         8838      0.06%     92.74% # Number of instructions issued per FU type, per thread (Count)
system.cpu1.statIssuedInstType_0::SimdMult            0      0.00%     92.74% # Number of instructions issued per FU type, per thread (Count)
system.cpu1.statIssuedInstType_0::SimdMultAcc            0      0.00%     92.74% # Number of instructions issued per FU type, per thread (Count)
system.cpu1.statIssuedInstType_0::SimdShift         2923      0.02%     92.76% # Number of instructions issued per FU type, per thread (Count)
system.cpu1.statIssuedInstType_0::SimdShiftAcc            0      0.00%     92.76% # Number of instructions issued per FU type, per thread (Count)
system.cpu1.statIssuedInstType_0::SimdDiv            0      0.00%     92.76% # Number of instructions issued per FU type, per thread (Count)
system.cpu1.statIssuedInstType_0::SimdSqrt            0      0.00%     92.76% # Number of instructions issued per FU type, per thread (Count)
system.cpu1.statIssuedInstType_0::SimdFloatAdd            0      0.00%     92.76% # Number of instructions issued per FU type, per thread (Count)
system.cpu1.statIssuedInstType_0::SimdFloatAlu            0      0.00%     92.76% # Number of instructions issued per FU type, per thread (Count)
system.cpu1.statIssuedInstType_0::SimdFloatCmp            0      0.00%     92.76% # Number of instructions issued per FU type, per thread (Count)
system.cpu1.statIssuedInstType_0::SimdFloatCvt            0      0.00%     92.76% # Number of instructions issued per FU type, per thread (Count)
system.cpu1.statIssuedInstType_0::SimdFloatDiv            0      0.00%     92.76% # Number of instructions issued per FU type, per thread (Count)
system.cpu1.statIssuedInstType_0::SimdFloatMisc            0      0.00%     92.76% # Number of instructions issued per FU type, per thread (Count)
system.cpu1.statIssuedInstType_0::SimdFloatMult            0      0.00%     92.76% # Number of instructions issued per FU type, per thread (Count)
system.cpu1.statIssuedInstType_0::SimdFloatMultAcc            0      0.00%     92.76% # Number of instructions issued per FU type, per thread (Count)
system.cpu1.statIssuedInstType_0::SimdFloatSqrt            0      0.00%     92.76% # Number of instructions issued per FU type, per thread (Count)
system.cpu1.statIssuedInstType_0::SimdReduceAdd            0      0.00%     92.76% # Number of instructions issued per FU type, per thread (Count)
system.cpu1.statIssuedInstType_0::SimdReduceAlu            0      0.00%     92.76% # Number of instructions issued per FU type, per thread (Count)
system.cpu1.statIssuedInstType_0::SimdReduceCmp            0      0.00%     92.76% # Number of instructions issued per FU type, per thread (Count)
system.cpu1.statIssuedInstType_0::SimdFloatReduceAdd            0      0.00%     92.76% # Number of instructions issued per FU type, per thread (Count)
system.cpu1.statIssuedInstType_0::SimdFloatReduceCmp            0      0.00%     92.76% # Number of instructions issued per FU type, per thread (Count)
system.cpu1.statIssuedInstType_0::SimdAes            0      0.00%     92.76% # Number of instructions issued per FU type, per thread (Count)
system.cpu1.statIssuedInstType_0::SimdAesMix            0      0.00%     92.76% # Number of instructions issued per FU type, per thread (Count)
system.cpu1.statIssuedInstType_0::SimdSha1Hash            0      0.00%     92.76% # Number of instructions issued per FU type, per thread (Count)
system.cpu1.statIssuedInstType_0::SimdSha1Hash2            0      0.00%     92.76% # Number of instructions issued per FU type, per thread (Count)
system.cpu1.statIssuedInstType_0::SimdSha256Hash            0      0.00%     92.76% # Number of instructions issued per FU type, per thread (Count)
system.cpu1.statIssuedInstType_0::SimdSha256Hash2            0      0.00%     92.76% # Number of instructions issued per FU type, per thread (Count)
system.cpu1.statIssuedInstType_0::SimdShaSigma2            0      0.00%     92.76% # Number of instructions issued per FU type, per thread (Count)
system.cpu1.statIssuedInstType_0::SimdShaSigma3            0      0.00%     92.76% # Number of instructions issued per FU type, per thread (Count)
system.cpu1.statIssuedInstType_0::SimdPredAlu            0      0.00%     92.76% # Number of instructions issued per FU type, per thread (Count)
system.cpu1.statIssuedInstType_0::MemRead       779207      4.96%     97.72% # Number of instructions issued per FU type, per thread (Count)
system.cpu1.statIssuedInstType_0::MemWrite       306198      1.95%     99.67% # Number of instructions issued per FU type, per thread (Count)
system.cpu1.statIssuedInstType_0::FloatMemRead        33808      0.22%     99.88% # Number of instructions issued per FU type, per thread (Count)
system.cpu1.statIssuedInstType_0::FloatMemWrite        18157      0.12%    100.00% # Number of instructions issued per FU type, per thread (Count)
system.cpu1.statIssuedInstType_0::IprAccess            0      0.00%    100.00% # Number of instructions issued per FU type, per thread (Count)
system.cpu1.statIssuedInstType_0::InstPrefetch            0      0.00%    100.00% # Number of instructions issued per FU type, per thread (Count)
system.cpu1.statIssuedInstType_0::total      15700251                       # Number of instructions issued per FU type, per thread (Count)
system.cpu1.issueRate                        1.195541                       # Inst issue rate ((Count/Cycle))
system.cpu1.fuBusy                              78544                       # FU busy when requested (Count)
system.cpu1.fuBusyRate                       0.005003                       # FU busy rate (busy events/executed inst) ((Count/Count))
system.cpu1.intInstQueueReads                43412096                       # Number of integer instruction queue reads (Count)
system.cpu1.intInstQueueWrites               17665215                       # Number of integer instruction queue writes (Count)
system.cpu1.intInstQueueWakeupAccesses       15498704                       # Number of integer instruction queue wakeup accesses (Count)
system.cpu1.fpInstQueueReads                   231915                       # Number of floating instruction queue reads (Count)
system.cpu1.fpInstQueueWrites                  176948                       # Number of floating instruction queue writes (Count)
system.cpu1.fpInstQueueWakeupAccesses          110801                       # Number of floating instruction queue wakeup accesses (Count)
system.cpu1.vecInstQueueReads                       0                       # Number of vector instruction queue reads (Count)
system.cpu1.vecInstQueueWrites                      0                       # Number of vector instruction queue writes (Count)
system.cpu1.vecInstQueueWakeupAccesses              0                       # Number of vector instruction queue wakeup accesses (Count)
system.cpu1.intAluAccesses                   15584262                       # Number of integer alu accesses (Count)
system.cpu1.fpAluAccesses                      116956                       # Number of floating point alu accesses (Count)
system.cpu1.vecAluAccesses                          0                       # Number of vector alu accesses (Count)
system.cpu1.numInsts                         15644680                       # Number of executed instructions (Count)
system.cpu1.numLoadInsts                       802050                       # Number of load instructions executed (Count)
system.cpu1.numSquashedInsts                    55570                       # Number of squashed instructions skipped in execute (Count)
system.cpu1.numSwp                                  0                       # Number of swp insts executed (Count)
system.cpu1.numNop                                  0                       # Number of nop insts executed (Count)
system.cpu1.numRefs                           1121979                       # Number of memory reference insts executed (Count)
system.cpu1.numBranches                        964929                       # Number of branches executed (Count)
[...]
system.ruby.network.ext_out_link_utilization      4135937                       (Unspecified)
system.ruby.network.flit_network_latency | 78371631000                       |205698049500                       | 19331150000                       (Unspecified)
system.ruby.network.flit_queueing_latency |  2102127500                       |  2128586000                       |   146541500                       (Unspecified)
system.ruby.network.flits_injected       |      980281     23.70%     23.70% |     2862573     69.21%     92.91% |      293083      7.09%    100.00% (Unspecified)
system.ruby.network.flits_injected::total      4135937                       (Unspecified)
system.ruby.network.flits_received       |      980281     23.70%     23.70% |     2862573     69.21%     92.91% |      293083      7.09%    100.00% (Unspecified)
system.ruby.network.flits_received::total      4135937                       (Unspecified)
system.ruby.network.int_link_utilization     10250160                       (Unspecified)
system.ruby.network.packet_network_latency | 58419773500                       | 68041135500                       | 19331150000                       (Unspecified)
system.ruby.network.packet_queueing_latency |  1721139500                       |   554344000                       |   146541500                       (Unspecified)
system.ruby.network.packets_injected     |      800457     42.26%     42.26% |      800457     42.26%     84.53% |      293083     15.47%    100.00% (Unspecified)
system.ruby.network.packets_injected::total      1893997                       (Unspecified)
system.ruby.network.packets_received     |      800457     42.26%     42.26% |      800457     42.26%     84.53% |      293083     15.47%    100.00% (Unspecified)
system.ruby.network.packets_received::total      1893997                       (Unspecified)
system.ruby.network.routers00.Var_1                 0                       (Unspecified)
system.ruby.network.routers00.Var_2                 0                       (Unspecified)
system.ruby.network.routers00.Var_3                 0                       (Unspecified)
system.ruby.network.routers00.all_counts            0                       (Unspecified)
system.ruby.network.routers00.buffer_reads       655460                       (Unspecified)
system.ruby.network.routers00.buffer_writes       655460                       (Unspecified)
system.ruby.network.routers00.crossbar_activity       655460                       (Unspecified)
system.ruby.network.routers00.detour_counts            0                       (Unspecified)
system.ruby.network.routers00.regular_var            0                       (Unspecified)
system.ruby.network.routers00.risk_counts            0                       (Unspecified)
system.ruby.network.routers00.sw_input_arbiter_activity       659937                       (Unspecified)
system.ruby.network.routers00.sw_output_arbiter_activity       655460                       (Unspecified)
system.ruby.network.routers01.Var_1                 0                       (Unspecified)
system.ruby.network.routers01.Var_2                 0                       (Unspecified)
system.ruby.network.routers01.Var_3                 0                       (Unspecified)
system.ruby.network.routers01.all_counts            0                       (Unspecified)
system.ruby.network.routers01.buffer_reads       915313                       (Unspecified)
system.ruby.network.routers01.buffer_writes       915313                       (Unspecified)
system.ruby.network.routers01.crossbar_activity       915313                       (Unspecified)
system.ruby.network.routers01.detour_counts            0                       (Unspecified)
system.ruby.network.routers01.regular_var            0                       (Unspecified)
system.ruby.network.routers01.risk_counts            0                       (Unspecified)
system.ruby.network.routers01.sw_input_arbiter_activity       925219                       (Unspecified)
system.ruby.network.routers01.sw_output_arbiter_activity       915313                       (Unspecified)
system.ruby.network.routers02.Var_1                 0                       (Unspecified)
system.ruby.network.routers02.Var_2                 0                       (Unspecified)
system.ruby.network.routers02.Var_3                 0                       (Unspecified)
system.ruby.network.routers02.all_counts            0                       (Unspecified)
system.ruby.network.routers02.buffer_reads       917646                       (Unspecified)
system.ruby.network.routers02.buffer_writes       917646                       (Unspecified)
system.ruby.network.routers02.crossbar_activity       917646                       (Unspecified)
system.ruby.network.routers02.detour_counts            0                       (Unspecified)
system.ruby.network.routers02.regular_var            0                       (Unspecified)
system.ruby.network.routers02.risk_counts            0                       (Unspecified)
system.ruby.network.routers02.sw_input_arbiter_activity       927229                       (Unspecified)
system.ruby.network.routers02.sw_output_arbiter_activity       917646                       (Unspecified)
system.ruby.network.routers03.Var_1                 0                       (Unspecified)
system.ruby.network.routers03.Var_2                 0                       (Unspecified)
system.ruby.network.routers03.Var_3                 0                       (Unspecified)
system.ruby.network.routers03.all_counts            0                       (Unspecified)
system.ruby.network.routers03.buffer_reads       645723                       (Unspecified)
system.ruby.network.routers03.buffer_writes       645723                       (Unspecified)
system.ruby.network.routers03.crossbar_activity       645723                       (Unspecified)
system.ruby.network.routers03.detour_counts            0                       (Unspecified)
system.ruby.network.routers03.regular_var            0                       (Unspecified)
system.ruby.network.routers03.risk_counts            0                       (Unspecified)
system.ruby.network.routers03.sw_input_arbiter_activity       650297                       (Unspecified)
system.ruby.network.routers03.sw_output_arbiter_activity       645723                       (Unspecified)
system.ruby.network.routers04.Var_1                 0                       (Unspecified)
system.ruby.network.routers04.Var_2                 0                       (Unspecified)
system.ruby.network.routers04.Var_3                 0                       (Unspecified)
system.ruby.network.routers04.all_counts            0                       (Unspecified)
system.ruby.network.routers04.buffer_reads       896222                       (Unspecified)
system.ruby.network.routers04.buffer_writes       896222                       (Unspecified)
system.ruby.network.routers04.crossbar_activity       896222                       (Unspecified)
system.ruby.network.routers04.detour_counts            0                       (Unspecified)
system.ruby.network.routers04.regular_var            0                       (Unspecified)
system.ruby.network.routers04.risk_counts            0                       (Unspecified)
system.ruby.network.routers04.sw_input_arbiter_activity       905282                       (Unspecified)
system.ruby.network.routers04.sw_output_arbiter_activity       896222                       (Unspecified)
system.ruby.network.routers05.Var_1                 0                       (Unspecified)
system.ruby.network.routers05.Var_2                 0                       (Unspecified)
system.ruby.network.routers05.Var_3                 0                       (Unspecified)
system.ruby.network.routers05.all_counts            0                       (Unspecified)
system.ruby.network.routers05.buffer_reads      1157403                       (Unspecified)
system.ruby.network.routers05.buffer_writes      1157403                       (Unspecified)
system.ruby.network.routers05.crossbar_activity      1157403                       (Unspecified)
system.ruby.network.routers05.detour_counts            0                       (Unspecified)
system.ruby.network.routers05.regular_var            0                       (Unspecified)
system.ruby.network.routers05.risk_counts            0                       (Unspecified)
system.ruby.network.routers05.sw_input_arbiter_activity      1172507                       (Unspecified)
system.ruby.network.routers05.sw_output_arbiter_activity      1157403                       (Unspecified)
system.ruby.network.routers06.Var_1                 0                       (Unspecified)
system.ruby.network.routers06.Var_2                 0                       (Unspecified)
system.ruby.network.routers06.Var_3                 0                       (Unspecified)
system.ruby.network.routers06.all_counts            0                       (Unspecified)
system.ruby.network.routers06.buffer_reads      1155273                       (Unspecified)
system.ruby.network.routers06.buffer_writes      1155273                       (Unspecified)
system.ruby.network.routers06.crossbar_activity      1155273                       (Unspecified)
system.ruby.network.routers06.detour_counts            0                       (Unspecified)
system.ruby.network.routers06.regular_var            0                       (Unspecified)
system.ruby.network.routers06.risk_counts            0                       (Unspecified)
system.ruby.network.routers06.sw_input_arbiter_activity      1171082                       (Unspecified)
system.ruby.network.routers06.sw_output_arbiter_activity      1155273                       (Unspecified)
system.ruby.network.routers07.Var_1                 0                       (Unspecified)
system.ruby.network.routers07.Var_2                 0                       (Unspecified)
system.ruby.network.routers07.Var_3                 0                       (Unspecified)
system.ruby.network.routers07.all_counts            0                       (Unspecified)
system.ruby.network.routers07.buffer_reads       883461                       (Unspecified)
system.ruby.network.routers07.buffer_writes       883461                       (Unspecified)
system.ruby.network.routers07.crossbar_activity       883461                       (Unspecified)
system.ruby.network.routers07.detour_counts            0                       (Unspecified)
system.ruby.network.routers07.regular_var            0                       (Unspecified)
system.ruby.network.routers07.risk_counts            0                       (Unspecified)
system.ruby.network.routers07.sw_input_arbiter_activity       892830                       (Unspecified)
system.ruby.network.routers07.sw_output_arbiter_activity       883461                       (Unspecified)
system.ruby.network.routers08.Var_1                 0                       (Unspecified)
system.ruby.network.routers08.Var_2                 0                       (Unspecified)
system.ruby.network.routers08.Var_3                 0                       (Unspecified)
system.ruby.network.routers08.all_counts            0                       (Unspecified)
system.ruby.network.routers08.buffer_reads       892109                       (Unspecified)
system.ruby.network.routers08.buffer_writes       892109                       (Unspecified)
system.ruby.network.routers08.crossbar_activity       892109                       (Unspecified)
system.ruby.network.routers08.detour_counts            0                       (Unspecified)
system.ruby.network.routers08.regular_var            0                       (Unspecified)
system.ruby.network.routers08.risk_counts            0                       (Unspecified)
system.ruby.network.routers08.sw_input_arbiter_activity       901746                       (Unspecified)
system.ruby.network.routers08.sw_output_arbiter_activity       892109                       (Unspecified)
system.ruby.network.routers09.Var_1                 0                       (Unspecified)
system.ruby.network.routers09.Var_2                 0                       (Unspecified)
system.ruby.network.routers09.Var_3                 0                       (Unspecified)
system.ruby.network.routers09.all_counts            0                       (Unspecified)
system.ruby.network.routers09.buffer_reads      1157364                       (Unspecified)
system.ruby.network.routers09.buffer_writes      1157364                       (Unspecified)
system.ruby.network.routers09.crossbar_activity      1157364                       (Unspecified)
system.ruby.network.routers09.detour_counts            0                       (Unspecified)
system.ruby.network.routers09.regular_var            0                       (Unspecified)
system.ruby.network.routers09.risk_counts            0                       (Unspecified)
system.ruby.network.routers09.sw_input_arbiter_activity      1172313                       (Unspecified)
system.ruby.network.routers09.sw_output_arbiter_activity      1157364                       (Unspecified)
system.ruby.network.routers10.Var_1                 0                       (Unspecified)
system.ruby.network.routers10.Var_2                 0                       (Unspecified)
system.ruby.network.routers10.Var_3                 0                       (Unspecified)
system.ruby.network.routers10.all_counts            0                       (Unspecified)
system.ruby.network.routers10.buffer_reads      1151930                       (Unspecified)
system.ruby.network.routers10.buffer_writes      1151930                       (Unspecified)
system.ruby.network.routers10.crossbar_activity      1151930                       (Unspecified)
system.ruby.network.routers10.detour_counts            0                       (Unspecified)
system.ruby.network.routers10.regular_var            0                       (Unspecified)
system.ruby.network.routers10.risk_counts            0                       (Unspecified)
system.ruby.network.routers10.sw_input_arbiter_activity      1166803                       (Unspecified)
system.ruby.network.routers10.sw_output_arbiter_activity      1151930                       (Unspecified)
system.ruby.network.routers11.Var_1                 0                       (Unspecified)
system.ruby.network.routers11.Var_2                 0                       (Unspecified)
system.ruby.network.routers11.Var_3                 0                       (Unspecified)
system.ruby.network.routers11.all_counts            0                       (Unspecified)
system.ruby.network.routers11.buffer_reads       878931                       (Unspecified)
system.ruby.network.routers11.buffer_writes       878931                       (Unspecified)
system.ruby.network.routers11.crossbar_activity       878931                       (Unspecified)
system.ruby.network.routers11.detour_counts            0                       (Unspecified)
system.ruby.network.routers11.regular_var            0                       (Unspecified)
system.ruby.network.routers11.risk_counts            0                       (Unspecified)
system.ruby.network.routers11.sw_input_arbiter_activity       887761                       (Unspecified)
system.ruby.network.routers11.sw_output_arbiter_activity       878931                       (Unspecified)
system.ruby.network.routers12.Var_1                 0                       (Unspecified)
system.ruby.network.routers12.Var_2                 0                       (Unspecified)
system.ruby.network.routers12.Var_3                 0                       (Unspecified)
system.ruby.network.routers12.all_counts            0                       (Unspecified)
system.ruby.network.routers12.buffer_reads       641804                       (Unspecified)
system.ruby.network.routers12.buffer_writes       641804                       (Unspecified)
system.ruby.network.routers12.crossbar_activity       641804                       (Unspecified)
system.ruby.network.routers12.detour_counts            0                       (Unspecified)
system.ruby.network.routers12.regular_var            0                       (Unspecified)
system.ruby.network.routers12.risk_counts            0                       (Unspecified)
system.ruby.network.routers12.sw_input_arbiter_activity       646067                       (Unspecified)
system.ruby.network.routers12.sw_output_arbiter_activity       641804                       (Unspecified)
system.ruby.network.routers13.Var_1                 0                       (Unspecified)
system.ruby.network.routers13.Var_2                 0                       (Unspecified)
system.ruby.network.routers13.Var_3                 0                       (Unspecified)
system.ruby.network.routers13.all_counts            0                       (Unspecified)
system.ruby.network.routers13.buffer_reads       903421                       (Unspecified)
system.ruby.network.routers13.buffer_writes       903421                       (Unspecified)
system.ruby.network.routers13.crossbar_activity       903421                       (Unspecified)
system.ruby.network.routers13.detour_counts            0                       (Unspecified)
system.ruby.network.routers13.regular_var            0                       (Unspecified)
system.ruby.network.routers13.risk_counts            0                       (Unspecified)
system.ruby.network.routers13.sw_input_arbiter_activity       912968                       (Unspecified)
system.ruby.network.routers13.sw_output_arbiter_activity       903421                       (Unspecified)
system.ruby.network.routers14.Var_1                 0                       (Unspecified)
system.ruby.network.routers14.Var_2                 0                       (Unspecified)
system.ruby.network.routers14.Var_3                 0                       (Unspecified)
system.ruby.network.routers14.all_counts            0                       (Unspecified)
system.ruby.network.routers14.buffer_reads       897908                       (Unspecified)
system.ruby.network.routers14.buffer_writes       897908                       (Unspecified)
system.ruby.network.routers14.crossbar_activity       897908                       (Unspecified)
system.ruby.network.routers14.detour_counts            0                       (Unspecified)
system.ruby.network.routers14.regular_var            0                       (Unspecified)
system.ruby.network.routers14.risk_counts            0                       (Unspecified)
system.ruby.network.routers14.sw_input_arbiter_activity       907321                       (Unspecified)
system.ruby.network.routers14.sw_output_arbiter_activity       897908                       (Unspecified)
system.ruby.network.routers15.Var_1                 0                       (Unspecified)
system.ruby.network.routers15.Var_2                 0                       (Unspecified)
system.ruby.network.routers15.Var_3                 0                       (Unspecified)
system.ruby.network.routers15.all_counts            0                       (Unspecified)
system.ruby.network.routers15.buffer_reads       636129                       (Unspecified)
system.ruby.network.routers15.buffer_writes       636129                       (Unspecified)
system.ruby.network.routers15.crossbar_activity       636129                       (Unspecified)
system.ruby.network.routers15.detour_counts            0                       (Unspecified)
system.ruby.network.routers15.regular_var            0                       (Unspecified)
system.ruby.network.routers15.risk_counts            0                       (Unspecified)
system.ruby.network.routers15.sw_input_arbiter_activity       640225                       (Unspecified)
system.ruby.network.routers15.sw_output_arbiter_activity       636129                       (Unspecified)

---------- End Simulation Statistics   ----------
