
---------- Begin Simulation Statistics ----------
simSeconds                                   0.007676                       # Number of seconds simulated (Second)
simTicks                                   7676067000                       # Number of ticks simulated (Tick)
finalTick                                  7676067000                       # Number of ticks from beginning of simulation (restored from checkpoints and never reset) (Tick)
simFreq                                  1000000000000                       # The number of ticks per simulated second ((Tick/Second))
hostSeconds                                   1663.32                       # Real time elapsed on the host (Second)
hostTickRate                                  4614908                       # The number of ticks simulated per host second (ticks/s) ((Tick/Second))
hostMemory                                   11500260                       # Number of bytes of host memory used (Byte)
simInsts                                    132687792                       # Number of instructions simulated (Count)
simOps                                      231069040                       # Number of ops (including micro ops) simulated (Count)
hostInstRate                                    79773                       # Simulator instruction rate (inst/s) ((Count/Second))
hostOpRate                                     138920                       # Simulator op (including micro ops) rate (op/s) ((Count/Second))
system.clk_domain.clock                          1000                       # Clock period in ticks (Tick)
system.cpu0.numCycles                        15236654                       # Number of cpu cycles simulated (Cycle)
system.cpu0.numWorkItemsStarted                     0                       # Number of work items this cpu started (Count)
system.cpu0.numWorkItemsCompleted                   0                       # Number of work items this cpu completed (Count)
system.cpu0.instsAdded                       18144844                       # Number of instructions added to the IQ (excludes non-spec) (Count)
system.cpu0.nonSpecInstsAdded                    1130                       # Number of non-speculative instructions added to the IQ (Count)
system.cpu0.instsIssued                      16814407                       # Number of instructions issued (Count)
system.cpu0.squashedInstsIssued                  5033                       # Number of squashed instructions issued (Count)
system.cpu0.squashedInstsExamined             3704159                       # Number of squashed instructions iterated over during squash; mainly for profiling (Count)
system.cpu0.squashedOperandsExamined          7156054                       # Number of squashed operands that are examined and possibly removed from graph (Count)
system.cpu0.squashedNonSpecRemoved                276                       # Number of squashed non-spec instructions that were removed (Count)
system.cpu0.numIssuedDist::samples           13874796                       # Number of insts issued each cycle (Count)
system.cpu0.numIssuedDist::mean              1.211867                       # Number of insts issued each cycle (Count)
system.cpu0.numIssuedDist::stdev             1.882403                       # Number of insts issued each cycle (Count)
system.cpu0.numIssuedDist::underflows               0      0.00%      0.00% # Number of insts issued each cycle (Count)
system.cpu0.numIssuedDist::0                  8783649     63.31%     63.31% # Number of insts issued each cycle (Count)
system.cpu0.numIssuedDist::1                   671337      4.84%     68.15% # Number of insts issued each cycle (Count)
system.cpu0.numIssuedDist::2                  1194697      8.61%     76.76% # Number of insts issued each cycle (Count)
system.cpu0.numIssuedDist::3                  1192233      8.59%     85.35% # Number of insts issued each cycle (Count)
system.cpu0.numIssuedDist::4                   856119      6.17%     91.52% # Number of insts issued each cycle (Count)
system.cpu0.numIssuedDist::5                   582970      4.20%     95.72% # Number of insts issued each cycle (Count)
system.cpu0.numIssuedDist::6                   388261      2.80%     98.52% # Number of insts issued each cycle (Count)
system.cpu0.numIssuedDist::7                   136155      0.98%     99.50% # Number of insts issued each cycle (Count)
system.cpu0.numIssuedDist::8                    69375      0.50%    100.00% # Number of insts issued each cycle (Count)
system.cpu0.numIssuedDist::overflows                0      0.00%    100.00% # Number of insts issued each cycle (Count)
system.cpu0.numIssuedDist::min_value                0                       # Number of insts issued each cycle (Count)
system.cpu0.numIssuedDist::max_value                8                       # Number of insts issued each cycle (Count)
system.cpu0.numIssuedDist::total             13874796                       # Number of insts issued each cycle (Count)
system.cpu0.statFuBusy::No_OpClass                  0      0.00%      0.00% # attempts to use FU when none available (Count)
system.cpu0.statFuBusy::IntAlu                 117749     83.84%     83.84% # attempts to use FU when none available (Count)
system.cpu0.statFuBusy::IntMult                     0      0.00%     83.84% # attempts to use FU when none available (Count)
system.cpu0.statFuBusy::IntDiv                      0      0.00%     83.84% # attempts to use FU when none available (Count)
system.cpu0.statFuBusy::FloatAdd                    0      0.00%     83.84% # attempts to use FU when none available (Count)
system.cpu0.statFuBusy::FloatCmp                    0      0.00%     83.84% # attempts to use FU when none available (Count)
system.cpu0.statFuBusy::FloatCvt                    2      0.00%     83.84% # attempts to use FU when none available (Count)
system.cpu0.statFuBusy::FloatMult                   0      0.00%     83.84% # attempts to use FU when none available (Count)
system.cpu0.statFuBusy::FloatMultAcc                0      0.00%     83.84% # attempts to use FU when none available (Count)
system.cpu0.statFuBusy::FloatDiv                    0      0.00%     83.84% # attempts to use FU when none available (Count)
system.cpu0.statFuBusy::FloatMisc                   0      0.00%     83.84% # attempts to use FU when none available (Count)
system.cpu0.statFuBusy::FloatSqrt                   0      0.00%     83.84% # attempts to use FU when none available (Count)
system.cpu0.statFuBusy::SimdAdd                     0      0.00%     83.84% # attempts to use FU when none available (Count)
system.cpu0.statFuBusy::SimdAddAcc                  0      0.00%     83.84% # attempts to use FU when none available (Count)
system.cpu0.statFuBusy::SimdAlu                   119      0.08%     83.92% # attempts to use FU when none available (Count)
system.cpu0.statFuBusy::SimdCmp                     0      0.00%     83.92% # attempts to use FU when none available (Count)
system.cpu0.statFuBusy::SimdCvt                   134      0.10%     84.02% # attempts to use FU when none available (Count)
system.cpu0.statFuBusy::SimdMisc                    0      0.00%     84.02% # attempts to use FU when none available (Count)
system.cpu0.statFuBusy::SimdMult                    0      0.00%     84.02% # attempts to use FU when none available (Count)
system.cpu0.statFuBusy::SimdMultAcc                 0      0.00%     84.02% # attempts to use FU when none available (Count)
system.cpu0.statFuBusy::SimdShift                 124      0.09%     84.11% # attempts to use FU when none available (Count)
system.cpu0.statFuBusy::SimdShiftAcc                0      0.00%     84.11% # attempts to use FU when none available (Count)
system.cpu0.statFuBusy::SimdDiv                     0      0.00%     84.11% # attempts to use FU when none available (Count)
system.cpu0.statFuBusy::SimdSqrt                    0      0.00%     84.11% # attempts to use FU when none available (Count)
system.cpu0.statFuBusy::SimdFloatAdd                0      0.00%     84.11% # attempts to use FU when none available (Count)
system.cpu0.statFuBusy::SimdFloatAlu                0      0.00%     84.11% # attempts to use FU when none available (Count)
system.cpu0.statFuBusy::SimdFloatCmp                0      0.00%     84.11% # attempts to use FU when none available (Count)
system.cpu0.statFuBusy::SimdFloatCvt                0      0.00%     84.11% # attempts to use FU when none available (Count)
system.cpu0.statFuBusy::SimdFloatDiv                0      0.00%     84.11% # attempts to use FU when none available (Count)
system.cpu0.statFuBusy::SimdFloatMisc               0      0.00%     84.11% # attempts to use FU when none available (Count)
system.cpu0.statFuBusy::SimdFloatMult               0      0.00%     84.11% # attempts to use FU when none available (Count)
system.cpu0.statFuBusy::SimdFloatMultAcc            0      0.00%     84.11% # attempts to use FU when none available (Count)
system.cpu0.statFuBusy::SimdFloatSqrt               0      0.00%     84.11% # attempts to use FU when none available (Count)
system.cpu0.statFuBusy::SimdReduceAdd               0      0.00%     84.11% # attempts to use FU when none available (Count)
system.cpu0.statFuBusy::SimdReduceAlu               0      0.00%     84.11% # attempts to use FU when none available (Count)
system.cpu0.statFuBusy::SimdReduceCmp               0      0.00%     84.11% # attempts to use FU when none available (Count)
system.cpu0.statFuBusy::SimdFloatReduceAdd            0      0.00%     84.11% # attempts to use FU when none available (Count)
system.cpu0.statFuBusy::SimdFloatReduceCmp            0      0.00%     84.11% # attempts to use FU when none available (Count)
system.cpu0.statFuBusy::SimdAes                     0      0.00%     84.11% # attempts to use FU when none available (Count)
system.cpu0.statFuBusy::SimdAesMix                  0      0.00%     84.11% # attempts to use FU when none available (Count)
system.cpu0.statFuBusy::SimdSha1Hash                0      0.00%     84.11% # attempts to use FU when none available (Count)
system.cpu0.statFuBusy::SimdSha1Hash2               0      0.00%     84.11% # attempts to use FU when none available (Count)
system.cpu0.statFuBusy::SimdSha256Hash              0      0.00%     84.11% # attempts to use FU when none available (Count)
system.cpu0.statFuBusy::SimdSha256Hash2             0      0.00%     84.11% # attempts to use FU when none available (Count)
system.cpu0.statFuBusy::SimdShaSigma2               0      0.00%     84.11% # attempts to use FU when none available (Count)
system.cpu0.statFuBusy::SimdShaSigma3               0      0.00%     84.11% # attempts to use FU when none available (Count)
system.cpu0.statFuBusy::SimdPredAlu                 0      0.00%     84.11% # attempts to use FU when none available (Count)
system.cpu0.statFuBusy::MemRead                 12079      8.60%     92.71% # attempts to use FU when none available (Count)
system.cpu0.statFuBusy::MemWrite                 7900      5.62%     98.33% # attempts to use FU when none available (Count)
system.cpu0.statFuBusy::FloatMemRead             1725      1.23%     99.56% # attempts to use FU when none available (Count)
system.cpu0.statFuBusy::FloatMemWrite             620      0.44%    100.00% # attempts to use FU when none available (Count)
system.cpu0.statFuBusy::IprAccess                   0      0.00%    100.00% # attempts to use FU when none available (Count)
system.cpu0.statFuBusy::InstPrefetch                0      0.00%    100.00% # attempts to use FU when none available (Count)
system.cpu0.statIssuedInstType_0::No_OpClass        60441      0.36%      0.36% # Number of instructions issued per FU type, per thread (Count)
system.cpu0.statIssuedInstType_0::IntAlu     14590392     86.77%     87.13% # Number of instructions issued per FU type, per thread (Count)
system.cpu0.statIssuedInstType_0::IntMult           35      0.00%     87.13% # Number of instructions issued per FU type, per thread (Count)
system.cpu0.statIssuedInstType_0::IntDiv        38443      0.23%     87.36% # Number of instructions issued per FU type, per thread (Count)
system.cpu0.statIssuedInstType_0::FloatAdd         6401      0.04%     87.40% # Number of instructions issued per FU type, per thread (Count)
system.cpu0.statIssuedInstType_0::FloatCmp            0      0.00%     87.40% # Number of instructions issued per FU type, per thread (Count)
system.cpu0.statIssuedInstType_0::FloatCvt         1724      0.01%     87.41% # Number of instructions issued per FU type, per thread (Count)
system.cpu0.statIssuedInstType_0::FloatMult            0      0.00%     87.41% # Number of instructions issued per FU type, per thread (Count)
system.cpu0.statIssuedInstType_0::FloatMultAcc            0      0.00%     87.41% # Number of instructions issued per FU type, per thread (Count)
system.cpu0.statIssuedInstType_0::FloatDiv            0      0.00%     87.41% # Number of instructions issued per FU type, per thread (Count)
system.cpu0.statIssuedInstType_0::FloatMisc            0      0.00%     87.41% # Number of instructions issued per FU type, per thread (Count)
system.cpu0.statIssuedInstType_0::FloatSqrt            0      0.00%     87.41% # Number of instructions issued per FU type, per thread (Count)
system.cpu0.statIssuedInstType_0::SimdAdd         8409      0.05%     87.46% # Number of instructions issued per FU type, per thread (Count)
system.cpu0.statIssuedInstType_0::SimdAddAcc            0      0.00%     87.46% # Number of instructions issued per FU type, per thread (Count)
system.cpu0.statIssuedInstType_0::SimdAlu        25328      0.15%     87.61% # Number of instructions issued per FU type, per thread (Count)
system.cpu0.statIssuedInstType_0::SimdCmp            0      0.00%     87.61% # Number of instructions issued per FU type, per thread (Count)
system.cpu0.statIssuedInstType_0::SimdCvt        26869      0.16%     87.77% # Number of instructions issued per FU type, per thread (Count)
system.cpu0.statIssuedInstType_0::SimdMisc        27320      0.16%     87.93% # Number of instructions issued per FU type, per thread (Count)
system.cpu0.statIssuedInstType_0::SimdMult            0      0.00%     87.93% # Number of instructions issued per FU type, per thread (Count)
system.cpu0.statIssuedInstType_0::SimdMultAcc            0      0.00%     87.93% # Number of instructions issued per FU type, per thread (Count)
system.cpu0.statIssuedInstType_0::SimdShift         2508      0.01%     87.95% # Number of instructions issued per FU type, per thread (Count)
system.cpu0.statIssuedInstType_0::SimdShiftAcc            0      0.00%     87.95% # Number of instructions issued per FU type, per thread (Count)
system.cpu0.statIssuedInstType_0::SimdDiv            0      0.00%     87.95% # Number of instructions issued per FU type, per thread (Count)
system.cpu0.statIssuedInstType_0::SimdSqrt            0      0.00%     87.95% # Number of instructions issued per FU type, per thread (Count)
system.cpu0.statIssuedInstType_0::SimdFloatAdd            0      0.00%     87.95% # Number of instructions issued per FU type, per thread (Count)
system.cpu0.statIssuedInstType_0::SimdFloatAlu            0      0.00%     87.95% # Number of instructions issued per FU type, per thread (Count)
system.cpu0.statIssuedInstType_0::SimdFloatCmp            0      0.00%     87.95% # Number of instructions issued per FU type, per thread (Count)
system.cpu0.statIssuedInstType_0::SimdFloatCvt            0      0.00%     87.95% # Number of instructions issued per FU type, per thread (Count)
system.cpu0.statIssuedInstType_0::SimdFloatDiv            0      0.00%     87.95% # Number of instructions issued per FU type, per thread (Count)
system.cpu0.statIssuedInstType_0::SimdFloatMisc            0      0.00%     87.95% # Number of instructions issued per FU type, per thread (Count)
system.cpu0.statIssuedInstType_0::SimdFloatMult            0      0.00%     87.95% # Number of instructions issued per FU type, per thread (Count)
system.cpu0.statIssuedInstType_0::SimdFloatMultAcc            0      0.00%     87.95% # Number of instructions issued per FU type, per thread (Count)
system.cpu0.statIssuedInstType_0::SimdFloatSqrt            0      0.00%     87.95% # Number of instructions issued per FU type, per thread (Count)
system.cpu0.statIssuedInstType_0::SimdReduceAdd            0      0.00%     87.95% # Number of instructions issued per FU type, per thread (Count)
system.cpu0.statIssuedInstType_0::SimdReduceAlu            0      0.00%     87.95% # Number of instructions issued per FU type, per thread (Count)
system.cpu0.statIssuedInstType_0::SimdReduceCmp            0      0.00%     87.95% # Number of instructions issued per FU type, per thread (Count)
system.cpu0.statIssuedInstType_0::SimdFloatReduceAdd            0      0.00%     87.95% # Number of instructions issued per FU type, per thread (Count)
system.cpu0.statIssuedInstType_0::SimdFloatReduceCmp            0      0.00%     87.95% # Number of instructions issued per FU type, per thread (Count)
system.cpu0.statIssuedInstType_0::SimdAes            0      0.00%     87.95% # Number of instructions issued per FU type, per thread (Count)
system.cpu0.statIssuedInstType_0::SimdAesMix            0      0.00%     87.95% # Number of instructions issued per FU type, per thread (Count)
system.cpu0.statIssuedInstType_0::SimdSha1Hash            0      0.00%     87.95% # Number of instructions issued per FU type, per thread (Count)
system.cpu0.statIssuedInstType_0::SimdSha1Hash2            0      0.00%     87.95% # Number of instructions issued per FU type, per thread (Count)
system.cpu0.statIssuedInstType_0::SimdSha256Hash            0      0.00%     87.95% # Number of instructions issued per FU type, per thread (Count)
system.cpu0.statIssuedInstType_0::SimdSha256Hash2            0      0.00%     87.95% # Number of instructions issued per FU type, per thread (Count)
system.cpu0.statIssuedInstType_0::SimdShaSigma2            0      0.00%     87.95% # Number of instructions issued per FU type, per thread (Count)
system.cpu0.statIssuedInstType_0::SimdShaSigma3            0      0.00%     87.95% # Number of instructions issued per FU type, per thread (Count)
system.cpu0.statIssuedInstType_0::SimdPredAlu            0      0.00%     87.95% # Number of instructions issued per FU type, per thread (Count)
system.cpu0.statIssuedInstType_0::MemRead      1315119      7.82%     95.77% # Number of instructions issued per FU type, per thread (Count)
system.cpu0.statIssuedInstType_0::MemWrite       646817      3.85%     99.62% # Number of instructions issued per FU type, per thread (Count)
system.cpu0.statIssuedInstType_0::FloatMemRead        42469      0.25%     99.87% # Number of instructions issued per FU type, per thread (Count)
system.cpu0.statIssuedInstType_0::FloatMemWrite        22132      0.13%    100.00% # Number of instructions issued per FU type, per thread (Count)
system.cpu0.statIssuedInstType_0::IprAccess            0      0.00%    100.00% # Number of instructions issued per FU type, per thread (Count)
system.cpu0.statIssuedInstType_0::InstPrefetch            0      0.00%    100.00% # Number of instructions issued per FU type, per thread (Count)
system.cpu0.statIssuedInstType_0::total      16814407                       # Number of instructions issued per FU type, per thread (Count)
system.cpu0.issueRate                        1.103550                       # Inst issue rate ((Count/Cycle))
system.cpu0.fuBusy                             140452                       # FU busy when requested (Count)
system.cpu0.fuBusyRate                       0.008353                       # FU busy rate (busy events/executed inst) ((Count/Count))
system.cpu0.intInstQueueReads                47305136                       # Number of integer instruction queue reads (Count)
system.cpu0.intInstQueueWrites               21629386                       # Number of integer instruction queue writes (Count)
system.cpu0.intInstQueueWakeupAccesses       16420589                       # Number of integer instruction queue wakeup accesses (Count)
system.cpu0.fpInstQueueReads                   343959                       # Number of floating instruction queue reads (Count)
system.cpu0.fpInstQueueWrites                  232803                       # Number of floating instruction queue writes (Count)
system.cpu0.fpInstQueueWakeupAccesses          165506                       # Number of floating instruction queue wakeup accesses (Count)
system.cpu0.vecInstQueueReads                       0                       # Number of vector instruction queue reads (Count)
system.cpu0.vecInstQueueWrites                      0                       # Number of vector instruction queue writes (Count)
system.cpu0.vecInstQueueWakeupAccesses              0                       # Number of vector instruction queue wakeup accesses (Count)
system.cpu0.intAluAccesses                   16721239                       # Number of integer alu accesses (Count)
system.cpu0.fpAluAccesses                      173179                       # Number of floating point alu accesses (Count)
system.cpu0.vecAluAccesses                          0                       # Number of vector alu accesses (Count)
system.cpu0.numInsts                         16637154                       # Number of executed instructions (Count)
system.cpu0.numLoadInsts                      1331464                       # Number of load instructions executed (Count)
system.cpu0.numSquashedInsts                   177253                       # Number of squashed instructions skipped in execute (Count)
system.cpu0.numSwp                                  0                       # Number of swp insts executed (Count)
system.cpu0.numNop                                  0                       # Number of nop insts executed (Count)
system.cpu0.numRefs                           1994905                       # Number of memory reference insts executed (Count)
system.cpu0.numBranches                       1435551                       # Number of branches executed (Count)
system.cpu0.numStoreInsts                      663441                       # Number of stores executed (Count)
system.cpu0.numRate                          1.091917                       # Inst execution rate ((Count/Cycle))
system.cpu0.timesIdled                           2580                       # Number of times that the entire CPU went into an idle state and unscheduled itself (Count)
system.cpu0.idleCycles                        1361858                       # Total number of cycles that the CPU has spent unscheduled due to idling (Cycle)
system.cpu0.committedInsts                    8292987                       # Number of Instructions Simulated (Count)
system.cpu0.committedOps                     14441815                       # Number of Ops (including micro ops) Simulated (Count)
system.cpu0.cpi                              1.837294                       # CPI: Cycles Per Instruction ((Cycle/Count))
system.cpu0.totalCpi                         1.837294                       # CPI: Total CPI of All Threads ((Cycle/Count))
system.cpu0.ipc                              0.544279                       # IPC: Instructions Per Cycle ((Count/Cycle))
system.cpu0.totalIpc                         0.544279                       # IPC: Total IPC of All Threads ((Count/Cycle))
system.cpu0.intRegfileReads                  24818320                       # Number of integer regfile reads (Count)
system.cpu0.intRegfileWrites                 12851064                       # Number of integer regfile writes (Count)
system.cpu0.fpRegfileReads                     242605                       # Number of floating regfile reads (Count)
system.cpu0.fpRegfileWrites                    130115                       # Number of floating regfile writes (Count)
system.cpu0.ccRegfileReads                   14078198                       # number of cc regfile reads (Count)
system.cpu0.ccRegfileWrites                   7943641                       # number of cc regfile writes (Count)
system.cpu0.miscRegfileReads                  5027670                       # number of misc regfile reads (Count)
system.cpu0.miscRegfileWrites                     846                       # number of misc regfile writes (Count)
system.cpu0.MemDepUnit__0.insertedLoads       1584154                       # Number of loads inserted to the mem dependence unit. (Count)
system.cpu0.MemDepUnit__0.insertedStores       836133                       # Number of stores inserted to the mem dependence unit. (Count)
system.cpu0.MemDepUnit__0.conflictingLoads       521524                       # Number of conflicting loads. (Count)
system.cpu0.MemDepUnit__0.conflictingStores       408510                       # Number of conflicting stores. (Count)
system.cpu0.MemDepUnit__1.insertedLoads             0                       # Number of loads inserted to the mem dependence unit. (Count)
system.cpu0.MemDepUnit__1.insertedStores            0                       # Number of stores inserted to the mem dependence unit. (Count)
system.cpu0.MemDepUnit__1.conflictingLoads            0                       # Number of conflicting loads. (Count)
system.cpu0.MemDepUnit__1.conflictingStores            0                       # Number of conflicting stores. (Count)
system.cpu0.MemDepUnit__2.insertedLoads             0                       # Number of loads inserted to the mem dependence unit. (Count)
system.cpu0.MemDepUnit__2.insertedStores            0                       # Number of stores inserted to the mem dependence unit. (Count)
system.cpu0.MemDepUnit__2.conflictingLoads            0                       # Number of conflicting loads. (Count)
system.cpu0.MemDepUnit__2.conflictingStores            0                       # Number of conflicting stores. (Count)
system.cpu0.MemDepUnit__3.insertedLoads             0                       # Number of loads inserted to the mem dependence unit. (Count)
system.cpu0.MemDepUnit__3.insertedStores            0                       # Number of stores inserted to the mem dependence unit. (Count)
system.cpu0.MemDepUnit__3.conflictingLoads            0                       # Number of conflicting loads. (Count)
system.cpu0.MemDepUnit__3.conflictingStores            0                       # Number of conflicting stores. (Count)
system.cpu0.branchPred.lookups                1801537                       # Number of BP lookups (Count)
system.cpu0.branchPred.condPredicted          1670422                       # Number of conditional branches predicted (Count)
system.cpu0.branchPred.condIncorrect            81206                       # Number of conditional branches incorrect (Count)
system.cpu0.branchPred.BTBLookups             1061597                       # Number of BTB lookups (Count)
system.cpu0.branchPred.BTBUpdates               51112                       # Number of BTB updates (Count)
system.cpu0.branchPred.BTBHits                1056019                       # Number of BTB hits (Count)
system.cpu0.branchPred.BTBHitRatio           0.994746                       # BTB Hit Ratio (Ratio)
system.cpu0.branchPred.RASUsed                  25022                       # Number of times the RAS was used to get a target. (Count)
system.cpu0.branchPred.RASIncorrect                 7                       # Number of incorrect RAS predictions. (Count)
system.cpu0.branchPred.indirectLookups          20474                       # Number of indirect predictor lookups. (Count)
system.cpu0.branchPred.indirectHits             15529                       # Number of indirect target hits. (Count)
system.cpu0.branchPred.indirectMisses            4945                       # Number of indirect misses. (Count)
system.cpu0.branchPred.indirectMispredicted         1276                       # Number of mispredicted indirect branches. (Count)
system.cpu0.commit.commitSquashedInsts        3693168                       # The number of squashed insts skipped by commit (Count)
system.cpu0.commit.commitNonSpecStalls            854                       # The number of times commit has been forced to stall to communicate backwards (Count)
system.cpu0.commit.branchMispredicts            70186                       # The number of times a branch was mispredicted (Count)
system.cpu0.commit.numCommittedDist::samples     13345107                       # Number of insts commited each cycle (Count)
system.cpu0.commit.numCommittedDist::mean     1.082181                       # Number of insts commited each cycle (Count)
system.cpu0.commit.numCommittedDist::stdev     2.187150                       # Number of insts commited each cycle (Count)
system.cpu0.commit.numCommittedDist::underflows            0      0.00%      0.00% # Number of insts commited each cycle (Count)
system.cpu0.commit.numCommittedDist::0        9035899     67.71%     67.71% # Number of insts commited each cycle (Count)
system.cpu0.commit.numCommittedDist::1        1748808     13.10%     80.81% # Number of insts commited each cycle (Count)
system.cpu0.commit.numCommittedDist::2         656646      4.92%     85.73% # Number of insts commited each cycle (Count)
system.cpu0.commit.numCommittedDist::3         322901      2.42%     88.15% # Number of insts commited each cycle (Count)
system.cpu0.commit.numCommittedDist::4         128914      0.97%     89.12% # Number of insts commited each cycle (Count)
system.cpu0.commit.numCommittedDist::5         446829      3.35%     92.47% # Number of insts commited each cycle (Count)
system.cpu0.commit.numCommittedDist::6         159903      1.20%     93.67% # Number of insts commited each cycle (Count)
system.cpu0.commit.numCommittedDist::7          59863      0.45%     94.12% # Number of insts commited each cycle (Count)
system.cpu0.commit.numCommittedDist::8         785344      5.88%    100.00% # Number of insts commited each cycle (Count)
system.cpu0.commit.numCommittedDist::overflows            0      0.00%    100.00% # Number of insts commited each cycle (Count)
system.cpu0.commit.numCommittedDist::min_value            0                       # Number of insts commited each cycle (Count)
system.cpu0.commit.numCommittedDist::max_value            8                       # Number of insts commited each cycle (Count)
system.cpu0.commit.numCommittedDist::total     13345107                       # Number of insts commited each cycle (Count)
system.cpu0.commit.instsCommitted             8292987                       # Number of instructions committed (Count)
system.cpu0.commit.opsCommitted              14441815                       # Number of ops (including micro ops) committed (Count)
system.cpu0.commit.memRefs                    1778023                       # Number of memory references committed (Count)
system.cpu0.commit.loads                      1169914                       # Number of loads committed (Count)
system.cpu0.commit.amos                             0                       # Number of atomic instructions committed (Count)
system.cpu0.commit.membars                          2                       # Number of memory barriers committed (Count)
system.cpu0.commit.branches                   1243416                       # Number of branches committed (Count)
system.cpu0.commit.vectorInstructions               0                       # Number of committed Vector instructions. (Count)
system.cpu0.commit.floating                    134621                       # Number of committed floating point instructions. (Count)
system.cpu0.commit.integer                   14305442                       # Number of committed integer instructions. (Count)
system.cpu0.commit.functionCalls                19881                       # Number of function calls committed. (Count)
system.cpu0.commit.committedInstType_0::No_OpClass        45903      0.32%      0.32% # Class of committed instruction (Count)
system.cpu0.commit.committedInstType_0::IntAlu     12499191     86.55%     86.87% # Class of committed instruction (Count)
system.cpu0.commit.committedInstType_0::IntMult           29      0.00%     86.87% # Class of committed instruction (Count)
system.cpu0.commit.committedInstType_0::IntDiv        36053      0.25%     87.12% # Class of committed instruction (Count)
system.cpu0.commit.committedInstType_0::FloatAdd         5256      0.04%     87.15% # Class of committed instruction (Count)
system.cpu0.commit.committedInstType_0::FloatCmp            0      0.00%     87.15% # Class of committed instruction (Count)
system.cpu0.commit.committedInstType_0::FloatCvt         1504      0.01%     87.16% # Class of committed instruction (Count)
system.cpu0.commit.committedInstType_0::FloatMult            0      0.00%     87.16% # Class of committed instruction (Count)
system.cpu0.commit.committedInstType_0::FloatMultAcc            0      0.00%     87.16% # Class of committed instruction (Count)
system.cpu0.commit.committedInstType_0::FloatDiv            0      0.00%     87.16% # Class of committed instruction (Count)
system.cpu0.commit.committedInstType_0::FloatMisc            0      0.00%     87.16% # Class of committed instruction (Count)
system.cpu0.commit.committedInstType_0::FloatSqrt            0      0.00%     87.16% # Class of committed instruction (Count)
system.cpu0.commit.committedInstType_0::SimdAdd         6810      0.05%     87.21% # Class of committed instruction (Count)
system.cpu0.commit.committedInstType_0::SimdAddAcc            0      0.00%     87.21% # Class of committed instruction (Count)
system.cpu0.commit.committedInstType_0::SimdAlu        20482      0.14%     87.35% # Class of committed instruction (Count)
system.cpu0.commit.committedInstType_0::SimdCmp            0      0.00%     87.35% # Class of committed instruction (Count)
system.cpu0.commit.committedInstType_0::SimdCvt        21510      0.15%     87.50% # Class of committed instruction (Count)
system.cpu0.commit.committedInstType_0::SimdMisc        25702      0.18%     87.68% # Class of committed instruction (Count)
system.cpu0.commit.committedInstType_0::SimdMult            0      0.00%     87.68% # Class of committed instruction (Count)
system.cpu0.commit.committedInstType_0::SimdMultAcc            0      0.00%     87.68% # Class of committed instruction (Count)
system.cpu0.commit.committedInstType_0::SimdShift         1352      0.01%     87.69% # Class of committed instruction (Count)
system.cpu0.commit.committedInstType_0::SimdShiftAcc            0      0.00%     87.69% # Class of committed instruction (Count)
system.cpu0.commit.committedInstType_0::SimdDiv            0      0.00%     87.69% # Class of committed instruction (Count)
system.cpu0.commit.committedInstType_0::SimdSqrt            0      0.00%     87.69% # Class of committed instruction (Count)
system.cpu0.commit.committedInstType_0::SimdFloatAdd            0      0.00%     87.69% # Class of committed instruction (Count)
system.cpu0.commit.committedInstType_0::SimdFloatAlu            0      0.00%     87.69% # Class of committed instruction (Count)
system.cpu0.commit.committedInstType_0::SimdFloatCmp            0      0.00%     87.69% # Class of committed instruction (Count)
system.cpu0.commit.committedInstType_0::SimdFloatCvt            0      0.00%     87.69% # Class of committed instruction (Count)
system.cpu0.commit.committedInstType_0::SimdFloatDiv            0      0.00%     87.69% # Class of committed instruction (Count)
system.cpu0.commit.committedInstType_0::SimdFloatMisc            0      0.00%     87.69% # Class of committed instruction (Count)
system.cpu0.commit.committedInstType_0::SimdFloatMult            0      0.00%     87.69% # Class of committed instruction (Count)
system.cpu0.commit.committedInstType_0::SimdFloatMultAcc            0      0.00%     87.69% # Class of committed instruction (Count)
system.cpu0.commit.committedInstType_0::SimdFloatSqrt            0      0.00%     87.69% # Class of committed instruction (Count)
system.cpu0.commit.committedInstType_0::SimdReduceAdd            0      0.00%     87.69% # Class of committed instruction (Count)
system.cpu0.commit.committedInstType_0::SimdReduceAlu            0      0.00%     87.69% # Class of committed instruction (Count)
system.cpu0.commit.committedInstType_0::SimdReduceCmp            0      0.00%     87.69% # Class of committed instruction (Count)
system.cpu0.commit.committedInstType_0::SimdFloatReduceAdd            0      0.00%     87.69% # Class of committed instruction (Count)
system.cpu0.commit.committedInstType_0::SimdFloatReduceCmp            0      0.00%     87.69% # Class of committed instruction (Count)
system.cpu0.commit.committedInstType_0::SimdAes            0      0.00%     87.69% # Class of committed instruction (Count)
system.cpu0.commit.committedInstType_0::SimdAesMix            0      0.00%     87.69% # Class of committed instruction (Count)
system.cpu0.commit.committedInstType_0::SimdSha1Hash            0      0.00%     87.69% # Class of committed instruction (Count)
system.cpu0.commit.committedInstType_0::SimdSha1Hash2            0      0.00%     87.69% # Class of committed instruction (Count)
system.cpu0.commit.committedInstType_0::SimdSha256Hash            0      0.00%     87.69% # Class of committed instruction (Count)
system.cpu0.commit.committedInstType_0::SimdSha256Hash2            0      0.00%     87.69% # Class of committed instruction (Count)
system.cpu0.commit.committedInstType_0::SimdShaSigma2            0      0.00%     87.69% # Class of committed instruction (Count)
system.cpu0.commit.committedInstType_0::SimdShaSigma3            0      0.00%     87.69% # Class of committed instruction (Count)
system.cpu0.commit.committedInstType_0::SimdPredAlu            0      0.00%     87.69% # Class of committed instruction (Count)
system.cpu0.commit.committedInstType_0::MemRead      1141779      7.91%     95.59% # Class of committed instruction (Count)
system.cpu0.commit.committedInstType_0::MemWrite       591285      4.09%     99.69% # Class of committed instruction (Count)
system.cpu0.commit.committedInstType_0::FloatMemRead        28135      0.19%     99.88% # Class of committed instruction (Count)
system.cpu0.commit.committedInstType_0::FloatMemWrite        16824      0.12%    100.00% # Class of committed instruction (Count)
system.cpu0.commit.committedInstType_0::IprAccess            0      0.00%    100.00% # Class of committed instruction (Count)
system.cpu0.commit.committedInstType_0::InstPrefetch            0      0.00%    100.00% # Class of committed instruction (Count)
system.cpu0.commit.committedInstType_0::total     14441815                       # Class of committed instruction (Count)
system.cpu0.commit.commitEligibleSamples       785344                       # number cycles where commit BW limit reached (Cycle)
system.cpu0.decode.idleCycles                 1477946                       # Number of cycles decode is idle (Cycle)
system.cpu0.decode.blockedCycles              9461102                       # Number of cycles decode is blocked (Cycle)
system.cpu0.decode.runCycles                  2085015                       # Number of cycles decode is running (Cycle)
system.cpu0.decode.unblockCycles               768640                       # Number of cycles decode is unblocking (Cycle)
system.cpu0.decode.squashCycles                 82093                       # Number of cycles decode is squashing (Cycle)
system.cpu0.decode.branchResolved             1019201                       # Number of times decode resolved a branch (Count)
system.cpu0.decode.branchMispred                14053                       # Number of times decode detected a branch misprediction (Count)
system.cpu0.decode.decodedInsts              19038914                       # Number of instructions handled by decode (Count)
system.cpu0.decode.squashedInsts                27503                       # Number of squashed instructions handled by decode (Count)
system.cpu0.fetch.icacheStallCycles           1837544                       # Number of cycles fetch is stalled on an Icache miss (Cycle)
system.cpu0.fetch.insts                      11138318                       # Number of instructions fetch has processed (Count)
system.cpu0.fetch.branches                    1801537                       # Number of branches that fetch encountered (Count)
system.cpu0.fetch.predictedBranches           1096570                       # Number of branches that fetch has predicted taken (Count)
system.cpu0.fetch.cycles                     11697297                       # Number of cycles fetch has run and was not squashing or blocked (Cycle)
system.cpu0.fetch.squashCycles                 191406                       # Number of cycles fetch has spent squashing (Cycle)
system.cpu0.fetch.miscStallCycles               12655                       # Number of cycles fetch has spent waiting on interrupts, or bad addresses, or out of MSHRs (Cycle)
system.cpu0.fetch.pendingTrapStallCycles        17292                       # Number of stall cycles due to pending traps (Cycle)
system.cpu0.fetch.icacheWaitRetryStallCycles       214305                       # Number of stall cycles due to full MSHR (Cycle)
system.cpu0.fetch.cacheLines                  1587954                       # Number of cache lines fetched (Count)
system.cpu0.fetch.icacheSquashes                22024                       # Number of outstanding Icache misses that were squashed (Count)
system.cpu0.fetch.nisnDist::samples          13874796                       # Number of instructions fetched each cycle (Total) (Count)
system.cpu0.fetch.nisnDist::mean             1.425520                       # Number of instructions fetched each cycle (Total) (Count)
system.cpu0.fetch.nisnDist::stdev            2.777075                       # Number of instructions fetched each cycle (Total) (Count)
system.cpu0.fetch.nisnDist::underflows              0      0.00%      0.00% # Number of instructions fetched each cycle (Total) (Count)
system.cpu0.fetch.nisnDist::0                10429390     75.17%     75.17% # Number of instructions fetched each cycle (Total) (Count)
system.cpu0.fetch.nisnDist::1                  195348      1.41%     76.58% # Number of instructions fetched each cycle (Total) (Count)
system.cpu0.fetch.nisnDist::2                  381157      2.75%     79.32% # Number of instructions fetched each cycle (Total) (Count)
system.cpu0.fetch.nisnDist::3                  280346      2.02%     81.34% # Number of instructions fetched each cycle (Total) (Count)
system.cpu0.fetch.nisnDist::4                  347557      2.50%     83.85% # Number of instructions fetched each cycle (Total) (Count)
system.cpu0.fetch.nisnDist::5                  297626      2.15%     85.99% # Number of instructions fetched each cycle (Total) (Count)
system.cpu0.fetch.nisnDist::6                  128811      0.93%     86.92% # Number of instructions fetched each cycle (Total) (Count)
system.cpu0.fetch.nisnDist::7                  187614      1.35%     88.27% # Number of instructions fetched each cycle (Total) (Count)
system.cpu0.fetch.nisnDist::8                 1626947     11.73%    100.00% # Number of instructions fetched each cycle (Total) (Count)
system.cpu0.fetch.nisnDist::overflows               0      0.00%    100.00% # Number of instructions fetched each cycle (Total) (Count)
system.cpu0.fetch.nisnDist::min_value               0                       # Number of instructions fetched each cycle (Total) (Count)
system.cpu0.fetch.nisnDist::max_value               8                       # Number of instructions fetched each cycle (Total) (Count)
system.cpu0.fetch.nisnDist::total            13874796                       # Number of instructions fetched each cycle (Total) (Count)
system.cpu0.fetch.branchRate                 0.118237                       # Number of branch fetches per cycle (Ratio)
system.cpu0.fetch.rate                       0.731021                       # Number of inst fetches per cycle ((Count/Cycle))
system.cpu0.iew.idleCycles                          0                       # Number of cycles IEW is idle (Cycle)
system.cpu0.iew.squashCycles                    82093                       # Number of cycles IEW is squashing (Cycle)
system.cpu0.iew.blockCycles                   5727737                       # Number of cycles IEW is blocking (Cycle)
system.cpu0.iew.unblockCycles                  144327                       # Number of cycles IEW is unblocking (Cycle)
system.cpu0.iew.dispatchedInsts              18145974                       # Number of instructions dispatched to IQ (Count)
system.cpu0.iew.dispSquashedInsts                5674                       # Number of squashed instructions skipped by dispatch (Count)
system.cpu0.iew.dispLoadInsts                 1584154                       # Number of dispatched load instructions (Count)
system.cpu0.iew.dispStoreInsts                 836133                       # Number of dispatched store instructions (Count)
system.cpu0.iew.dispNonSpecInsts                  915                       # Number of dispatched non-speculative instructions (Count)
system.cpu0.iew.iqFullEvents                     7468                       # Number of times the IQ has become full, causing a stall (Count)
system.cpu0.iew.lsqFullEvents                  131677                       # Number of times the LSQ has become full, causing a stall (Count)
system.cpu0.iew.memOrderViolationEvents         12064                       # Number of memory order violations (Count)
system.cpu0.iew.predictedTakenIncorrect         30429                       # Number of branches that were predicted taken incorrectly (Count)
system.cpu0.iew.predictedNotTakenIncorrect        43642                       # Number of branches that were predicted not taken incorrectly (Count)
system.cpu0.iew.branchMispredicts               74071                       # Number of branch mispredicts detected at execute (Count)
system.cpu0.iew.instsToCommit                16602514                       # Cumulative count of insts sent to commit (Count)
system.cpu0.iew.writebackCount               16586095                       # Cumulative count of insts written-back (Count)
system.cpu0.iew.producerInst                 13541443                       # Number of instructions producing a value (Count)
system.cpu0.iew.consumerInst                 27713189                       # Number of instructions consuming a value (Count)
system.cpu0.iew.wbRate                       1.088565                       # Insts written-back per cycle ((Count/Cycle))
system.cpu0.iew.wbFanout                     0.488628                       # Average fanout of values written-back ((Count/Count))
system.cpu0.interrupts.clk_domain.clock          8000                       # Clock period in ticks (Tick)
system.cpu0.lsq0.forwLoads                     165383                       # Number of loads that had data forwarded from stores (Count)
system.cpu0.lsq0.squashedLoads                 414240                       # Number of loads squashed (Count)
system.cpu0.lsq0.ignoredResponses                 152                       # Number of memory responses ignored because the instruction is squashed (Count)
system.cpu0.lsq0.memOrderViolation              12064                       # Number of memory ordering violations (Count)
system.cpu0.lsq0.squashedStores                228024                       # Number of stores squashed (Count)
system.cpu0.lsq0.rescheduledLoads                1101                       # Number of loads that were rescheduled (Count)
system.cpu0.lsq0.blockedByCache                  2152                       # Number of times an access to memory failed due to the cache being blocked (Count)
system.cpu0.lsq0.loadToUse::samples           1169806                       # Distribution of cycle latency between the first time a load is issued and its completion (Unspecified)
system.cpu0.lsq0.loadToUse::mean            31.302114                       # Distribution of cycle latency between the first time a load is issued and its completion (Unspecified)
system.cpu0.lsq0.loadToUse::stdev          153.105691                       # Distribution of cycle latency between the first time a load is issued and its completion (Unspecified)
system.cpu0.lsq0.loadToUse::0-9               1124200     96.10%     96.10% # Distribution of cycle latency between the first time a load is issued and its completion (Unspecified)
system.cpu0.lsq0.loadToUse::10-19                  61      0.01%     96.11% # Distribution of cycle latency between the first time a load is issued and its completion (Unspecified)
system.cpu0.lsq0.loadToUse::20-29                  81      0.01%     96.11% # Distribution of cycle latency between the first time a load is issued and its completion (Unspecified)
system.cpu0.lsq0.loadToUse::30-39                  85      0.01%     96.12% # Distribution of cycle latency between the first time a load is issued and its completion (Unspecified)
system.cpu0.lsq0.loadToUse::40-49                  96      0.01%     96.13% # Distribution of cycle latency between the first time a load is issued and its completion (Unspecified)
system.cpu0.lsq0.loadToUse::50-59                  99      0.01%     96.14% # Distribution of cycle latency between the first time a load is issued and its completion (Unspecified)
system.cpu0.lsq0.loadToUse::60-69                 108      0.01%     96.15% # Distribution of cycle latency between the first time a load is issued and its completion (Unspecified)
system.cpu0.lsq0.loadToUse::70-79                  66      0.01%     96.15% # Distribution of cycle latency between the first time a load is issued and its completion (Unspecified)
system.cpu0.lsq0.loadToUse::80-89                  63      0.01%     96.16% # Distribution of cycle latency between the first time a load is issued and its completion (Unspecified)
system.cpu0.lsq0.loadToUse::90-99                  54      0.00%     96.16% # Distribution of cycle latency between the first time a load is issued and its completion (Unspecified)
system.cpu0.lsq0.loadToUse::100-109                79      0.01%     96.17% # Distribution of cycle latency between the first time a load is issued and its completion (Unspecified)
system.cpu0.lsq0.loadToUse::110-119                76      0.01%     96.18% # Distribution of cycle latency between the first time a load is issued and its completion (Unspecified)
system.cpu0.lsq0.loadToUse::120-129                68      0.01%     96.18% # Distribution of cycle latency between the first time a load is issued and its completion (Unspecified)
system.cpu0.lsq0.loadToUse::130-139                42      0.00%     96.19% # Distribution of cycle latency between the first time a load is issued and its completion (Unspecified)
system.cpu0.lsq0.loadToUse::140-149                52      0.00%     96.19% # Distribution of cycle latency between the first time a load is issued and its completion (Unspecified)
system.cpu0.lsq0.loadToUse::150-159                48      0.00%     96.19% # Distribution of cycle latency between the first time a load is issued and its completion (Unspecified)
system.cpu0.lsq0.loadToUse::160-169                74      0.01%     96.20% # Distribution of cycle latency between the first time a load is issued and its completion (Unspecified)
system.cpu0.lsq0.loadToUse::170-179               118      0.01%     96.21% # Distribution of cycle latency between the first time a load is issued and its completion (Unspecified)
system.cpu0.lsq0.loadToUse::180-189               572      0.05%     96.26% # Distribution of cycle latency between the first time a load is issued and its completion (Unspecified)
system.cpu0.lsq0.loadToUse::190-199                38      0.00%     96.26% # Distribution of cycle latency between the first time a load is issued and its completion (Unspecified)
system.cpu0.lsq0.loadToUse::200-209                55      0.00%     96.27% # Distribution of cycle latency between the first time a load is issued and its completion (Unspecified)
system.cpu0.lsq0.loadToUse::210-219                64      0.01%     96.27% # Distribution of cycle latency between the first time a load is issued and its completion (Unspecified)
system.cpu0.lsq0.loadToUse::220-229                86      0.01%     96.28% # Distribution of cycle latency between the first time a load is issued and its completion (Unspecified)
system.cpu0.lsq0.loadToUse::230-239               119      0.01%     96.29% # Distribution of cycle latency between the first time a load is issued and its completion (Unspecified)
system.cpu0.lsq0.loadToUse::240-249               531      0.05%     96.34% # Distribution of cycle latency between the first time a load is issued and its completion (Unspecified)
system.cpu0.lsq0.loadToUse::250-259                18      0.00%     96.34% # Distribution of cycle latency between the first time a load is issued and its completion (Unspecified)
system.cpu0.lsq0.loadToUse::260-269                44      0.00%     96.34% # Distribution of cycle latency between the first time a load is issued and its completion (Unspecified)
system.cpu0.lsq0.loadToUse::270-279                54      0.00%     96.35% # Distribution of cycle latency between the first time a load is issued and its completion (Unspecified)
system.cpu0.lsq0.loadToUse::280-289                94      0.01%     96.35% # Distribution of cycle latency between the first time a load is issued and its completion (Unspecified)
system.cpu0.lsq0.loadToUse::290-299               147      0.01%     96.37% # Distribution of cycle latency between the first time a load is issued and its completion (Unspecified)
system.cpu0.lsq0.loadToUse::overflows           42514      3.63%    100.00% # Distribution of cycle latency between the first time a load is issued and its completion (Unspecified)
system.cpu0.lsq0.loadToUse::min_value               2                       # Distribution of cycle latency between the first time a load is issued and its completion (Unspecified)
system.cpu0.lsq0.loadToUse::max_value            2457                       # Distribution of cycle latency between the first time a load is issued and its completion (Unspecified)
system.cpu0.lsq0.loadToUse::total             1169806                       # Distribution of cycle latency between the first time a load is issued and its completion (Unspecified)
system.cpu0.mmu.dtb.rdAccesses                1325741                       # TLB accesses on read requests (Count)
system.cpu0.mmu.dtb.wrAccesses                 663451                       # TLB accesses on write requests (Count)
system.cpu0.mmu.dtb.rdMisses                     3229                       # TLB misses on read requests (Count)
system.cpu0.mmu.dtb.wrMisses                      435                       # TLB misses on write requests (Count)
system.cpu0.mmu.dtb.walker.power_state.pwrStateResidencyTicks::UNDEFINED   7676067000                       # Cumulative time (in ticks) in various power states (Tick)
system.cpu0.mmu.itb.rdAccesses                      0                       # TLB accesses on read requests (Count)
system.cpu0.mmu.itb.wrAccesses                1590651                       # TLB accesses on write requests (Count)
system.cpu0.mmu.itb.rdMisses                        0                       # TLB misses on read requests (Count)
system.cpu0.mmu.itb.wrMisses                     3284                       # TLB misses on write requests (Count)
system.cpu0.mmu.itb.walker.power_state.pwrStateResidencyTicks::UNDEFINED   7676067000                       # Cumulative time (in ticks) in various power states (Tick)
system.cpu0.power_state.pwrStateResidencyTicks::ON   7676067000                       # Cumulative time (in ticks) in various power states (Tick)
system.cpu0.rename.squashCycles                 82093                       # Number of cycles rename is squashing (Cycle)
system.cpu0.rename.idleCycles                 1783157                       # Number of cycles rename is idle (Cycle)
system.cpu0.rename.blockCycles                7468714                       # Number of cycles rename is blocking (Cycle)
system.cpu0.rename.serializeStallCycles         23607                       # count of cycles rename stalled for serializing inst (Cycle)
system.cpu0.rename.runCycles                  2523644                       # Number of cycles rename is running (Cycle)
system.cpu0.rename.unblockCycles              1993581                       # Number of cycles rename is unblocking (Cycle)
system.cpu0.rename.renamedInsts              18706118                       # Number of instructions processed by rename (Count)
system.cpu0.rename.ROBFullEvents               112465                       # Number of times rename has blocked due to ROB full (Count)
system.cpu0.rename.IQFullEvents               1020387                       # Number of times rename has blocked due to IQ full (Count)
system.cpu0.rename.LQFullEvents                162324                       # Number of times rename has blocked due to LQ full (Count)
system.cpu0.rename.SQFullEvents                574918                       # Number of times rename has blocked due to SQ full (Count)
system.cpu0.rename.fullRegistersEvents           2898                       # Number of times there has been no free registers (Count)
system.cpu0.rename.renamedOperands           38964561                       # Number of destination operands rename has renamed (Count)
system.cpu0.rename.lookups                   74000543                       # Number of register rename lookups that rename has made (Count)
system.cpu0.rename.intLookups                28405442                       # Number of integer rename lookups (Count)
system.cpu0.rename.fpLookups                   280946                       # Number of floating rename lookups (Count)
system.cpu0.rename.committedMaps             30697623                       # Number of HB maps that are committed (Count)
system.cpu0.rename.undoneMaps                 8266938                       # Number of HB maps that are undone due to squashing (Count)
system.cpu0.rename.serializing                    875                       # count of serializing insts renamed (Count)
system.cpu0.rename.tempSerializing                860                       # count of temporary serializing insts renamed (Count)
system.cpu0.rename.skidInsts                  3398081                       # count of insts added to the skid buffer (Count)
system.cpu0.rob.reads                        30686088                       # The number of ROB reads (Count)
system.cpu0.rob.writes                       36800545                       # The number of ROB writes (Count)
system.cpu0.thread_0.numInsts                 8292987                       # Number of Instructions committed (Count)
system.cpu0.thread_0.numOps                  14441815                       # Number of Ops committed (Count)
system.cpu0.thread_0.numMemRefs                     0                       # Number of Memory References (Count)
system.cpu0.workload.numSyscalls                   66                       # Number of system calls (Count)
system.cpu1.numCycles                        14843452                       # Number of cpu cycles simulated (Cycle)
system.cpu1.numWorkItemsStarted                     0                       # Number of work items this cpu started (Count)
system.cpu1.numWorkItemsCompleted                   0                       # Number of work items this cpu completed (Count)
system.cpu1.instsAdded                       18145302                       # Number of instructions added to the IQ (excludes non-spec) (Count)
system.cpu1.nonSpecInstsAdded                    1130                       # Number of non-speculative instructions added to the IQ (Count)
system.cpu1.instsIssued                      16814501                       # Number of instructions issued (Count)
system.cpu1.squashedInstsIssued                  4958                       # Number of squashed instructions issued (Count)
system.cpu1.squashedInstsExamined             3704617                       # Number of squashed instructions iterated over during squash; mainly for profiling (Count)
system.cpu1.squashedOperandsExamined          7156697                       # Number of squashed operands that are examined and possibly removed from graph (Count)
system.cpu1.squashedNonSpecRemoved                276                       # Number of squashed non-spec instructions that were removed (Count)
system.cpu1.numIssuedDist::samples           13571921                       # Number of insts issued each cycle (Count)
system.cpu1.numIssuedDist::mean              1.238918                       # Number of insts issued each cycle (Count)
system.cpu1.numIssuedDist::stdev             1.894474                       # Number of insts issued each cycle (Count)
system.cpu1.numIssuedDist::underflows               0      0.00%      0.00% # Number of insts issued each cycle (Count)
system.cpu1.numIssuedDist::0                  8480763     62.49%     62.49% # Number of insts issued each cycle (Count)
system.cpu1.numIssuedDist::1                   671269      4.95%     67.43% # Number of insts issued each cycle (Count)
system.cpu1.numIssuedDist::2                  1194702      8.80%     76.24% # Number of insts issued each cycle (Count)
system.cpu1.numIssuedDist::3                  1192332      8.79%     85.02% # Number of insts issued each cycle (Count)
system.cpu1.numIssuedDist::4                   856231      6.31%     91.33% # Number of insts issued each cycle (Count)
system.cpu1.numIssuedDist::5                   582865      4.29%     95.63% # Number of insts issued each cycle (Count)
system.cpu1.numIssuedDist::6                   388119      2.86%     98.48% # Number of insts issued each cycle (Count)
system.cpu1.numIssuedDist::7                   136251      1.00%     99.49% # Number of insts issued each cycle (Count)
system.cpu1.numIssuedDist::8                    69389      0.51%    100.00% # Number of insts issued each cycle (Count)
system.cpu1.numIssuedDist::overflows                0      0.00%    100.00% # Number of insts issued each cycle (Count)
system.cpu1.numIssuedDist::min_value                0                       # Number of insts issued each cycle (Count)
system.cpu1.numIssuedDist::max_value                8                       # Number of insts issued each cycle (Count)
system.cpu1.numIssuedDist::total             13571921                       # Number of insts issued each cycle (Count)
system.cpu1.statFuBusy::No_OpClass                  0      0.00%      0.00% # attempts to use FU when none available (Count)
system.cpu1.statFuBusy::IntAlu                 117900     83.83%     83.83% # attempts to use FU when none available (Count)
system.cpu1.statFuBusy::IntMult                     0      0.00%     83.83% # attempts to use FU when none available (Count)
system.cpu1.statFuBusy::IntDiv                      0      0.00%     83.83% # attempts to use FU when none available (Count)
system.cpu1.statFuBusy::FloatAdd                    0      0.00%     83.83% # attempts to use FU when none available (Count)
system.cpu1.statFuBusy::FloatCmp                    0      0.00%     83.83% # attempts to use FU when none available (Count)
system.cpu1.statFuBusy::FloatCvt                    0      0.00%     83.83% # attempts to use FU when none available (Count)
system.cpu1.statFuBusy::FloatMult                   0      0.00%     83.83% # attempts to use FU when none available (Count)
system.cpu1.statFuBusy::FloatMultAcc                0      0.00%     83.83% # attempts to use FU when none available (Count)
system.cpu1.statFuBusy::FloatDiv                    0      0.00%     83.83% # attempts to use FU when none available (Count)
system.cpu1.statFuBusy::FloatMisc                   0      0.00%     83.83% # attempts to use FU when none available (Count)
system.cpu1.statFuBusy::FloatSqrt                   0      0.00%     83.83% # attempts to use FU when none available (Count)
system.cpu1.statFuBusy::SimdAdd                     0      0.00%     83.83% # attempts to use FU when none available (Count)
system.cpu1.statFuBusy::SimdAddAcc                  0      0.00%     83.83% # attempts to use FU when none available (Count)
system.cpu1.statFuBusy::SimdAlu                   119      0.08%     83.92% # attempts to use FU when none available (Count)
system.cpu1.statFuBusy::SimdCmp                     0      0.00%     83.92% # attempts to use FU when none available (Count)
system.cpu1.statFuBusy::SimdCvt                   142      0.10%     84.02% # attempts to use FU when none available (Count)
system.cpu1.statFuBusy::SimdMisc                    0      0.00%     84.02% # attempts to use FU when none available (Count)
system.cpu1.statFuBusy::SimdMult                    0      0.00%     84.02% # attempts to use FU when none available (Count)
system.cpu1.statFuBusy::SimdMultAcc                 0      0.00%     84.02% # attempts to use FU when none available (Count)
system.cpu1.statFuBusy::SimdShift                 128      0.09%     84.11% # attempts to use FU when none available (Count)
system.cpu1.statFuBusy::SimdShiftAcc                0      0.00%     84.11% # attempts to use FU when none available (Count)
system.cpu1.statFuBusy::SimdDiv                     0      0.00%     84.11% # attempts to use FU when none available (Count)
system.cpu1.statFuBusy::SimdSqrt                    0      0.00%     84.11% # attempts to use FU when none available (Count)
system.cpu1.statFuBusy::SimdFloatAdd                0      0.00%     84.11% # attempts to use FU when none available (Count)
system.cpu1.statFuBusy::SimdFloatAlu                0      0.00%     84.11% # attempts to use FU when none available (Count)
system.cpu1.statFuBusy::SimdFloatCmp                0      0.00%     84.11% # attempts to use FU when none available (Count)
system.cpu1.statFuBusy::SimdFloatCvt                0      0.00%     84.11% # attempts to use FU when none available (Count)
system.cpu1.statFuBusy::SimdFloatDiv                0      0.00%     84.11% # attempts to use FU when none available (Count)
system.cpu1.statFuBusy::SimdFloatMisc               0      0.00%     84.11% # attempts to use FU when none available (Count)
system.cpu1.statFuBusy::SimdFloatMult               0      0.00%     84.11% # attempts to use FU when none available (Count)
system.cpu1.statFuBusy::SimdFloatMultAcc            0      0.00%     84.11% # attempts to use FU when none available (Count)
system.cpu1.statFuBusy::SimdFloatSqrt               0      0.00%     84.11% # attempts to use FU when none available (Count)
system.cpu1.statFuBusy::SimdReduceAdd               0      0.00%     84.11% # attempts to use FU when none available (Count)
system.cpu1.statFuBusy::SimdReduceAlu               0      0.00%     84.11% # attempts to use FU when none available (Count)
system.cpu1.statFuBusy::SimdReduceCmp               0      0.00%     84.11% # attempts to use FU when none available (Count)
system.cpu1.statFuBusy::SimdFloatReduceAdd            0      0.00%     84.11% # attempts to use FU when none available (Count)
system.cpu1.statFuBusy::SimdFloatReduceCmp            0      0.00%     84.11% # attempts to use FU when none available (Count)
system.cpu1.statFuBusy::SimdAes                     0      0.00%     84.11% # attempts to use FU when none available (Count)
system.cpu1.statFuBusy::SimdAesMix                  0      0.00%     84.11% # attempts to use FU when none available (Count)
system.cpu1.statFuBusy::SimdSha1Hash                0      0.00%     84.11% # attempts to use FU when none available (Count)
system.cpu1.statFuBusy::SimdSha1Hash2               0      0.00%     84.11% # attempts to use FU when none available (Count)
system.cpu1.statFuBusy::SimdSha256Hash              0      0.00%     84.11% # attempts to use FU when none available (Count)
system.cpu1.statFuBusy::SimdSha256Hash2             0      0.00%     84.11% # attempts to use FU when none available (Count)
system.cpu1.statFuBusy::SimdShaSigma2               0      0.00%     84.11% # attempts to use FU when none available (Count)
system.cpu1.statFuBusy::SimdShaSigma3               0      0.00%     84.11% # attempts to use FU when none available (Count)
system.cpu1.statFuBusy::SimdPredAlu                 0      0.00%     84.11% # attempts to use FU when none available (Count)
system.cpu1.statFuBusy::MemRead                 12091      8.60%     92.71% # attempts to use FU when none available (Count)
system.cpu1.statFuBusy::MemWrite                 7918      5.63%     98.34% # attempts to use FU when none available (Count)
system.cpu1.statFuBusy::FloatMemRead             1721      1.22%     99.56% # attempts to use FU when none available (Count)
system.cpu1.statFuBusy::FloatMemWrite             620      0.44%    100.00% # attempts to use FU when none available (Count)
system.cpu1.statFuBusy::IprAccess                   0      0.00%    100.00% # attempts to use FU when none available (Count)
system.cpu1.statFuBusy::InstPrefetch                0      0.00%    100.00% # attempts to use FU when none available (Count)
system.cpu1.statIssuedInstType_0::No_OpClass        60349      0.36%      0.36% # Number of instructions issued per FU type, per thread (Count)
system.cpu1.statIssuedInstType_0::IntAlu     14590702     86.77%     87.13% # Number of instructions issued per FU type, per thread (Count)
system.cpu1.statIssuedInstType_0::IntMult           34      0.00%     87.13% # Number of instructions issued per FU type, per thread (Count)
system.cpu1.statIssuedInstType_0::IntDiv        38430      0.23%     87.36% # Number of instructions issued per FU type, per thread (Count)
system.cpu1.statIssuedInstType_0::FloatAdd         6401      0.04%     87.40% # Number of instructions issued per FU type, per thread (Count)
system.cpu1.statIssuedInstType_0::FloatCmp            0      0.00%     87.40% # Number of instructions issued per FU type, per thread (Count)
system.cpu1.statIssuedInstType_0::FloatCvt         1726      0.01%     87.41% # Number of instructions issued per FU type, per thread (Count)
system.cpu1.statIssuedInstType_0::FloatMult            0      0.00%     87.41% # Number of instructions issued per FU type, per thread (Count)
system.cpu1.statIssuedInstType_0::FloatMultAcc            0      0.00%     87.41% # Number of instructions issued per FU type, per thread (Count)
system.cpu1.statIssuedInstType_0::FloatDiv            0      0.00%     87.41% # Number of instructions issued per FU type, per thread (Count)
system.cpu1.statIssuedInstType_0::FloatMisc            0      0.00%     87.41% # Number of instructions issued per FU type, per thread (Count)
system.cpu1.statIssuedInstType_0::FloatSqrt            0      0.00%     87.41% # Number of instructions issued per FU type, per thread (Count)
system.cpu1.statIssuedInstType_0::SimdAdd         8420      0.05%     87.46% # Number of instructions issued per FU type, per thread (Count)
system.cpu1.statIssuedInstType_0::SimdAddAcc            0      0.00%     87.46% # Number of instructions issued per FU type, per thread (Count)
system.cpu1.statIssuedInstType_0::SimdAlu        25335      0.15%     87.61% # Number of instructions issued per FU type, per thread (Count)
system.cpu1.statIssuedInstType_0::SimdCmp            0      0.00%     87.61% # Number of instructions issued per FU type, per thread (Count)
system.cpu1.statIssuedInstType_0::SimdCvt        26854      0.16%     87.77% # Number of instructions issued per FU type, per thread (Count)
system.cpu1.statIssuedInstType_0::SimdMisc        27322      0.16%     87.93% # Number of instructions issued per FU type, per thread (Count)
system.cpu1.statIssuedInstType_0::SimdMult            0      0.00%     87.93% # Number of instructions issued per FU type, per thread (Count)
system.cpu1.statIssuedInstType_0::SimdMultAcc            0      0.00%     87.93% # Number of instructions issued per FU type, per thread (Count)
system.cpu1.statIssuedInstType_0::SimdShift         2492      0.01%     87.95% # Number of instructions issued per FU type, per thread (Count)
system.cpu1.statIssuedInstType_0::SimdShiftAcc            0      0.00%     87.95% # Number of instructions issued per FU type, per thread (Count)
system.cpu1.statIssuedInstType_0::SimdDiv            0      0.00%     87.95% # Number of instructions issued per FU type, per thread (Count)
system.cpu1.statIssuedInstType_0::SimdSqrt            0      0.00%     87.95% # Number of instructions issued per FU type, per thread (Count)
system.cpu1.statIssuedInstType_0::SimdFloatAdd            0      0.00%     87.95% # Number of instructions issued per FU type, per thread (Count)
system.cpu1.statIssuedInstType_0::SimdFloatAlu            0      0.00%     87.95% # Number of instructions issued per FU type, per thread (Count)
system.cpu1.statIssuedInstType_0::SimdFloatCmp            0      0.00%     87.95% # Number of instructions issued per FU type, per thread (Count)
system.cpu1.statIssuedInstType_0::SimdFloatCvt            0      0.00%     87.95% # Number of instructions issued per FU type, per thread (Count)
system.cpu1.statIssuedInstType_0::SimdFloatDiv            0      0.00%     87.95% # Number of instructions issued per FU type, per thread (Count)
system.cpu1.statIssuedInstType_0::SimdFloatMisc            0      0.00%     87.95% # Number of instructions issued per FU type, per thread (Count)
system.cpu1.statIssuedInstType_0::SimdFloatMult            0      0.00%     87.95% # Number of instructions issued per FU type, per thread (Count)
system.cpu1.statIssuedInstType_0::SimdFloatMultAcc            0      0.00%     87.95% # Number of instructions issued per FU type, per thread (Count)
system.cpu1.statIssuedInstType_0::SimdFloatSqrt            0      0.00%     87.95% # Number of instructions issued per FU type, per thread (Count)
system.cpu1.statIssuedInstType_0::SimdReduceAdd            0      0.00%     87.95% # Number of instructions issued per FU type, per thread (Count)
system.cpu1.statIssuedInstType_0::SimdReduceAlu            0      0.00%     87.95% # Number of instructions issued per FU type, per thread (Count)
system.cpu1.statIssuedInstType_0::SimdReduceCmp            0      0.00%     87.95% # Number of instructions issued per FU type, per thread (Count)
system.cpu1.statIssuedInstType_0::SimdFloatReduceAdd            0      0.00%     87.95% # Number of instructions issued per FU type, per thread (Count)
system.cpu1.statIssuedInstType_0::SimdFloatReduceCmp            0      0.00%     87.95% # Number of instructions issued per FU type, per thread (Count)
system.cpu1.statIssuedInstType_0::SimdAes            0      0.00%     87.95% # Number of instructions issued per FU type, per thread (Count)
system.cpu1.statIssuedInstType_0::SimdAesMix            0      0.00%     87.95% # Number of instructions issued per FU type, per thread (Count)
system.cpu1.statIssuedInstType_0::SimdSha1Hash            0      0.00%     87.95% # Number of instructions issued per FU type, per thread (Count)
system.cpu1.statIssuedInstType_0::SimdSha1Hash2            0      0.00%     87.95% # Number of instructions issued per FU type, per thread (Count)
system.cpu1.statIssuedInstType_0::SimdSha256Hash            0      0.00%     87.95% # Number of instructions issued per FU type, per thread (Count)
system.cpu1.statIssuedInstType_0::SimdSha256Hash2            0      0.00%     87.95% # Number of instructions issued per FU type, per thread (Count)
system.cpu1.statIssuedInstType_0::SimdShaSigma2            0      0.00%     87.95% # Number of instructions issued per FU type, per thread (Count)
system.cpu1.statIssuedInstType_0::SimdShaSigma3            0      0.00%     87.95% # Number of instructions issued per FU type, per thread (Count)
system.cpu1.statIssuedInstType_0::SimdPredAlu            0      0.00%     87.95% # Number of instructions issued per FU type, per thread (Count)
system.cpu1.statIssuedInstType_0::MemRead      1315025      7.82%     95.77% # Number of instructions issued per FU type, per thread (Count)
system.cpu1.statIssuedInstType_0::MemWrite       646827      3.85%     99.62% # Number of instructions issued per FU type, per thread (Count)
system.cpu1.statIssuedInstType_0::FloatMemRead        42439      0.25%     99.87% # Number of instructions issued per FU type, per thread (Count)
system.cpu1.statIssuedInstType_0::FloatMemWrite        22145      0.13%    100.00% # Number of instructions issued per FU type, per thread (Count)
system.cpu1.statIssuedInstType_0::IprAccess            0      0.00%    100.00% # Number of instructions issued per FU type, per thread (Count)
system.cpu1.statIssuedInstType_0::InstPrefetch            0      0.00%    100.00% # Number of instructions issued per FU type, per thread (Count)
system.cpu1.statIssuedInstType_0::total      16814501                       # Number of instructions issued per FU type, per thread (Count)
system.cpu1.issueRate                        1.132789                       # Inst issue rate ((Count/Cycle))
system.cpu1.fuBusy                             140639                       # FU busy when requested (Count)
system.cpu1.fuBusyRate                       0.008364                       # FU busy rate (busy events/executed inst) ((Count/Count))
system.cpu1.intInstQueueReads                47002627                       # Number of integer instruction queue reads (Count)
system.cpu1.intInstQueueWrites               21630377                       # Number of integer instruction queue writes (Count)
system.cpu1.intInstQueueWakeupAccesses       16420928                       # Number of integer instruction queue wakeup accesses (Count)
system.cpu1.fpInstQueueReads                   343893                       # Number of floating instruction queue reads (Count)
system.cpu1.fpInstQueueWrites                  232737                       # Number of floating instruction queue writes (Count)
system.cpu1.fpInstQueueWakeupAccesses          165471                       # Number of floating instruction queue wakeup accesses (Count)
system.cpu1.vecInstQueueReads                       0                       # Number of vector instruction queue reads (Count)
system.cpu1.vecInstQueueWrites                      0                       # Number of vector instruction queue writes (Count)
system.cpu1.vecInstQueueWakeupAccesses              0                       # Number of vector instruction queue wakeup accesses (Count)
system.cpu1.intAluAccesses                   16721638                       # Number of integer alu accesses (Count)
system.cpu1.fpAluAccesses                      173153                       # Number of floating point alu accesses (Count)
system.cpu1.vecAluAccesses                          0                       # Number of vector alu accesses (Count)
system.cpu1.numInsts                         16637173                       # Number of executed instructions (Count)
system.cpu1.numLoadInsts                      1331301                       # Number of load instructions executed (Count)
system.cpu1.numSquashedInsts                   177328                       # Number of squashed instructions skipped in execute (Count)
system.cpu1.numSwp                                  0                       # Number of swp insts executed (Count)
system.cpu1.numNop                                  0                       # Number of nop insts executed (Count)
system.cpu1.numRefs                           1994767                       # Number of memory reference insts executed (Count)
system.cpu1.numBranches                       1435595                       # Number of branches executed (Count)
[...]
system.ruby.network.ext_out_link_utilization      4282827                       (Unspecified)
system.ruby.network.flit_network_latency |107260511000                       |213158145000                       | 29161036500                       (Unspecified)
system.ruby.network.flit_queueing_latency |  2223831500                       |  2002192000                       |   149732000                       (Unspecified)
system.ruby.network.flits_injected       |     1014539     23.69%     23.69% |     2968825     69.32%     93.01% |      299465      6.99%    100.00% (Unspecified)
system.ruby.network.flits_injected::total      4282829                       (Unspecified)
system.ruby.network.flits_received       |     1014538     23.69%     23.69% |     2968825     69.32%     93.01% |      299464      6.99%    100.00% (Unspecified)
system.ruby.network.flits_received::total      4282827                       (Unspecified)
system.ruby.network.int_link_utilization     12972536                       (Unspecified)
system.ruby.network.packet_network_latency | 80361739500                       | 70331712000                       | 29161036500                       (Unspecified)
system.ruby.network.packet_queueing_latency |  1807989500                       |   530986000                       |   149732000                       (Unspecified)
system.ruby.network.packets_injected     |      826831     42.33%     42.33% |      826829     42.33%     84.67% |      299465     15.33%    100.00% (Unspecified)
system.ruby.network.packets_injected::total      1953125                       (Unspecified)
system.ruby.network.packets_received     |      826830     42.33%     42.33% |      826829     42.33%     84.67% |      299464     15.33%    100.00% (Unspecified)
system.ruby.network.packets_received::total      1953123                       (Unspecified)
system.ruby.network.routers00.Var_1                 0                       (Unspecified)
system.ruby.network.routers00.Var_2                 0                       (Unspecified)
system.ruby.network.routers00.Var_3                 0                       (Unspecified)
system.ruby.network.routers00.all_counts            0                       (Unspecified)
system.ruby.network.routers00.buffer_reads       765412                       (Unspecified)
system.ruby.network.routers00.buffer_writes       765412                       (Unspecified)
system.ruby.network.routers00.crossbar_activity       765412                       (Unspecified)
system.ruby.network.routers00.detour_counts        54319                       (Unspecified)
system.ruby.network.routers00.regular_var            0                       (Unspecified)
system.ruby.network.routers00.risk_counts            0                       (Unspecified)
system.ruby.network.routers00.sw_input_arbiter_activity       771035                       (Unspecified)
system.ruby.network.routers00.sw_output_arbiter_activity       765412                       (Unspecified)
system.ruby.network.routers01.Var_1                 0                       (Unspecified)
system.ruby.network.routers01.Var_2                 0                       (Unspecified)
system.ruby.network.routers01.Var_3                 0                       (Unspecified)
system.ruby.network.routers01.all_counts            0                       (Unspecified)
system.ruby.network.routers01.buffer_reads      1099612                       (Unspecified)
system.ruby.network.routers01.buffer_writes      1099612                       (Unspecified)
system.ruby.network.routers01.crossbar_activity      1099612                       (Unspecified)
system.ruby.network.routers01.detour_counts        54484                       (Unspecified)
system.ruby.network.routers01.regular_var            0                       (Unspecified)
system.ruby.network.routers01.risk_counts            0                       (Unspecified)
system.ruby.network.routers01.sw_input_arbiter_activity      1111959                       (Unspecified)
system.ruby.network.routers01.sw_output_arbiter_activity      1099612                       (Unspecified)
system.ruby.network.routers02.Var_1                 0                       (Unspecified)
system.ruby.network.routers02.Var_2                 0                       (Unspecified)
system.ruby.network.routers02.Var_3                 0                       (Unspecified)
system.ruby.network.routers02.all_counts            0                       (Unspecified)
system.ruby.network.routers02.buffer_reads      1101500                       (Unspecified)
system.ruby.network.routers02.buffer_writes      1101500                       (Unspecified)
system.ruby.network.routers02.crossbar_activity      1101500                       (Unspecified)
system.ruby.network.routers02.detour_counts        54349                       (Unspecified)
system.ruby.network.routers02.regular_var            0                       (Unspecified)
system.ruby.network.routers02.risk_counts            0                       (Unspecified)
system.ruby.network.routers02.sw_input_arbiter_activity      1113695                       (Unspecified)
system.ruby.network.routers02.sw_output_arbiter_activity      1101500                       (Unspecified)
system.ruby.network.routers03.Var_1                 0                       (Unspecified)
system.ruby.network.routers03.Var_2                 0                       (Unspecified)
system.ruby.network.routers03.Var_3                 0                       (Unspecified)
system.ruby.network.routers03.all_counts            0                       (Unspecified)
system.ruby.network.routers03.buffer_reads       757270                       (Unspecified)
system.ruby.network.routers03.buffer_writes       757270                       (Unspecified)
system.ruby.network.routers03.crossbar_activity       757270                       (Unspecified)
system.ruby.network.routers03.detour_counts        54463                       (Unspecified)
system.ruby.network.routers03.regular_var            0                       (Unspecified)
system.ruby.network.routers03.risk_counts            0                       (Unspecified)
system.ruby.network.routers03.sw_input_arbiter_activity       762688                       (Unspecified)
system.ruby.network.routers03.sw_output_arbiter_activity       757270                       (Unspecified)
system.ruby.network.routers04.Var_1                 0                       (Unspecified)
system.ruby.network.routers04.Var_2                 0                       (Unspecified)
system.ruby.network.routers04.Var_3                 0                       (Unspecified)
system.ruby.network.routers04.all_counts            0                       (Unspecified)
system.ruby.network.routers04.buffer_reads      1069499                       (Unspecified)
system.ruby.network.routers04.buffer_writes      1069499                       (Unspecified)
system.ruby.network.routers04.crossbar_activity      1069499                       (Unspecified)
system.ruby.network.routers04.detour_counts        54454                       (Unspecified)
system.ruby.network.routers04.regular_var            0                       (Unspecified)
system.ruby.network.routers04.risk_counts            0                       (Unspecified)
system.ruby.network.routers04.sw_input_arbiter_activity      1081010                       (Unspecified)
system.ruby.network.routers04.sw_output_arbiter_activity      1069499                       (Unspecified)
system.ruby.network.routers05.Var_1                 0                       (Unspecified)
system.ruby.network.routers05.Var_2                 0                       (Unspecified)
system.ruby.network.routers05.Var_3                 0                       (Unspecified)
system.ruby.network.routers05.all_counts            0                       (Unspecified)
system.ruby.network.routers05.buffer_reads      1401941                       (Unspecified)
system.ruby.network.routers05.buffer_writes      1401941                       (Unspecified)
system.ruby.network.routers05.crossbar_activity      1401941                       (Unspecified)
system.ruby.network.routers05.detour_counts        54449                       (Unspecified)
system.ruby.network.routers05.regular_var            0                       (Unspecified)
system.ruby.network.routers05.risk_counts            0                       (Unspecified)
system.ruby.network.routers05.sw_input_arbiter_activity      1419832                       (Unspecified)
system.ruby.network.routers05.sw_output_arbiter_activity      1401941                       (Unspecified)
system.ruby.network.routers06.Var_1                 0                       (Unspecified)
system.ruby.network.routers06.Var_2                 0                       (Unspecified)
system.ruby.network.routers06.Var_3                 0                       (Unspecified)
system.ruby.network.routers06.all_counts            0                       (Unspecified)
system.ruby.network.routers06.buffer_reads      1397787                       (Unspecified)
system.ruby.network.routers06.buffer_writes      1397787                       (Unspecified)
system.ruby.network.routers06.crossbar_activity      1397787                       (Unspecified)
system.ruby.network.routers06.detour_counts        54486                       (Unspecified)
system.ruby.network.routers06.regular_var            0                       (Unspecified)
system.ruby.network.routers06.risk_counts            0                       (Unspecified)
system.ruby.network.routers06.sw_input_arbiter_activity      1416402                       (Unspecified)
system.ruby.network.routers06.sw_output_arbiter_activity      1397787                       (Unspecified)
system.ruby.network.routers07.Var_1                 0                       (Unspecified)
system.ruby.network.routers07.Var_2                 0                       (Unspecified)
system.ruby.network.routers07.Var_3                 0                       (Unspecified)
system.ruby.network.routers07.all_counts            0                       (Unspecified)
system.ruby.network.routers07.buffer_reads      1058190                       (Unspecified)
system.ruby.network.routers07.buffer_writes      1058190                       (Unspecified)
system.ruby.network.routers07.crossbar_activity      1058190                       (Unspecified)
system.ruby.network.routers07.detour_counts        54524                       (Unspecified)
system.ruby.network.routers07.regular_var            0                       (Unspecified)
system.ruby.network.routers07.risk_counts            0                       (Unspecified)
system.ruby.network.routers07.sw_input_arbiter_activity      1069316                       (Unspecified)
system.ruby.network.routers07.sw_output_arbiter_activity      1058190                       (Unspecified)
system.ruby.network.routers08.Var_1                 0                       (Unspecified)
system.ruby.network.routers08.Var_2                 0                       (Unspecified)
system.ruby.network.routers08.Var_3                 0                       (Unspecified)
system.ruby.network.routers08.all_counts            0                       (Unspecified)
system.ruby.network.routers08.buffer_reads      1067649                       (Unspecified)
system.ruby.network.routers08.buffer_writes      1067649                       (Unspecified)
system.ruby.network.routers08.crossbar_activity      1067649                       (Unspecified)
system.ruby.network.routers08.detour_counts        54480                       (Unspecified)
system.ruby.network.routers08.regular_var            0                       (Unspecified)
system.ruby.network.routers08.risk_counts            0                       (Unspecified)
system.ruby.network.routers08.sw_input_arbiter_activity      1079158                       (Unspecified)
system.ruby.network.routers08.sw_output_arbiter_activity      1067649                       (Unspecified)
system.ruby.network.routers09.Var_1                 0                       (Unspecified)
system.ruby.network.routers09.Var_2                 0                       (Unspecified)
system.ruby.network.routers09.Var_3                 0                       (Unspecified)
system.ruby.network.routers09.all_counts            0                       (Unspecified)
system.ruby.network.routers09.buffer_reads      1404051                       (Unspecified)
system.ruby.network.routers09.buffer_writes      1404051                       (Unspecified)
system.ruby.network.routers09.crossbar_activity      1404051                       (Unspecified)
system.ruby.network.routers09.detour_counts        54307                       (Unspecified)
system.ruby.network.routers09.regular_var            0                       (Unspecified)
system.ruby.network.routers09.risk_counts            0                       (Unspecified)
system.ruby.network.routers09.sw_input_arbiter_activity      1422475                       (Unspecified)
system.ruby.network.routers09.sw_output_arbiter_activity      1404051                       (Unspecified)
system.ruby.network.routers10.Var_1                 0                       (Unspecified)
system.ruby.network.routers10.Var_2                 0                       (Unspecified)
system.ruby.network.routers10.Var_3                 0                       (Unspecified)
system.ruby.network.routers10.all_counts            0                       (Unspecified)
system.ruby.network.routers10.buffer_reads      1398506                       (Unspecified)
system.ruby.network.routers10.buffer_writes      1398506                       (Unspecified)
system.ruby.network.routers10.crossbar_activity      1398506                       (Unspecified)
system.ruby.network.routers10.detour_counts        54326                       (Unspecified)
system.ruby.network.routers10.regular_var            0                       (Unspecified)
system.ruby.network.routers10.risk_counts            0                       (Unspecified)
system.ruby.network.routers10.sw_input_arbiter_activity      1416522                       (Unspecified)
system.ruby.network.routers10.sw_output_arbiter_activity      1398506                       (Unspecified)
system.ruby.network.routers11.Var_1                 0                       (Unspecified)
system.ruby.network.routers11.Var_2                 0                       (Unspecified)
system.ruby.network.routers11.Var_3                 0                       (Unspecified)
system.ruby.network.routers11.all_counts            0                       (Unspecified)
system.ruby.network.routers11.buffer_reads      1055187                       (Unspecified)
system.ruby.network.routers11.buffer_writes      1055187                       (Unspecified)
system.ruby.network.routers11.crossbar_activity      1055187                       (Unspecified)
system.ruby.network.routers11.detour_counts        54601                       (Unspecified)
system.ruby.network.routers11.regular_var            0                       (Unspecified)
system.ruby.network.routers11.risk_counts            0                       (Unspecified)
system.ruby.network.routers11.sw_input_arbiter_activity      1066517                       (Unspecified)
system.ruby.network.routers11.sw_output_arbiter_activity      1055187                       (Unspecified)
system.ruby.network.routers12.Var_1                 0                       (Unspecified)
system.ruby.network.routers12.Var_2                 0                       (Unspecified)
system.ruby.network.routers12.Var_3                 0                       (Unspecified)
system.ruby.network.routers12.all_counts            0                       (Unspecified)
system.ruby.network.routers12.buffer_reads       755796                       (Unspecified)
system.ruby.network.routers12.buffer_writes       755796                       (Unspecified)
system.ruby.network.routers12.crossbar_activity       755796                       (Unspecified)
system.ruby.network.routers12.detour_counts        54413                       (Unspecified)
system.ruby.network.routers12.regular_var            0                       (Unspecified)
system.ruby.network.routers12.risk_counts            0                       (Unspecified)
system.ruby.network.routers12.sw_input_arbiter_activity       761402                       (Unspecified)
system.ruby.network.routers12.sw_output_arbiter_activity       755796                       (Unspecified)
system.ruby.network.routers13.Var_1                 0                       (Unspecified)
system.ruby.network.routers13.Var_2                 0                       (Unspecified)
system.ruby.network.routers13.Var_3                 0                       (Unspecified)
system.ruby.network.routers13.all_counts            0                       (Unspecified)
system.ruby.network.routers13.buffer_reads      1090907                       (Unspecified)
system.ruby.network.routers13.buffer_writes      1090907                       (Unspecified)
system.ruby.network.routers13.crossbar_activity      1090907                       (Unspecified)
system.ruby.network.routers13.detour_counts        54373                       (Unspecified)
system.ruby.network.routers13.regular_var            0                       (Unspecified)
system.ruby.network.routers13.risk_counts            0                       (Unspecified)
system.ruby.network.routers13.sw_input_arbiter_activity      1103044                       (Unspecified)
system.ruby.network.routers13.sw_output_arbiter_activity      1090907                       (Unspecified)
system.ruby.network.routers14.Var_1                 0                       (Unspecified)
system.ruby.network.routers14.Var_2                 0                       (Unspecified)
system.ruby.network.routers14.Var_3                 0                       (Unspecified)
system.ruby.network.routers14.all_counts            0                       (Unspecified)
system.ruby.network.routers14.buffer_reads      1083359                       (Unspecified)
system.ruby.network.routers14.buffer_writes      1083359                       (Unspecified)
system.ruby.network.routers14.crossbar_activity      1083359                       (Unspecified)
system.ruby.network.routers14.detour_counts        54553                       (Unspecified)
system.ruby.network.routers14.regular_var            0                       (Unspecified)
system.ruby.network.routers14.risk_counts            0                       (Unspecified)
system.ruby.network.routers14.sw_input_arbiter_activity      1095648                       (Unspecified)
system.ruby.network.routers14.sw_output_arbiter_activity      1083359                       (Unspecified)
system.ruby.network.routers15.Var_1                 0                       (Unspecified)
system.ruby.network.routers15.Var_2                 0                       (Unspecified)
system.ruby.network.routers15.Var_3                 0                       (Unspecified)
system.ruby.network.routers15.all_counts            0                       (Unspecified)
system.ruby.network.routers15.buffer_reads       748697                       (Unspecified)
system.ruby.network.routers15.buffer_writes       748697                       (Unspecified)
system.ruby.network.routers15.crossbar_activity       748697                       (Unspecified)
system.ruby.network.routers15.detour_counts        54561                       (Unspecified)
system.ruby.network.routers15.regular_var            0                       (Unspecified)
system.ruby.network.routers15.risk_counts            0                       (Unspecified)
system.ruby.network.routers15.sw_input_arbiter_activity       754040                       (Unspecified)
system.ruby.network.routers15.sw_output_arbiter_activity       748697                       (Unspecified)

---------- End Simulation Statistics   ----------
