
---------- Begin Simulation Statistics ----------
simSeconds                                   0.005850                       # Number of seconds simulated (Second)
simTicks                                   5850129500                       # Number of ticks simulated (Tick)
finalTick                                  5850129500                       # Number of ticks from beginning of simulation (restored from checkpoints and never reset) (Tick)
simFreq                                  1000000000000                       # The number of ticks per simulated second ((Tick/Second))
hostSeconds                                    980.52                       # Real time elapsed on the host (Second)
hostTickRate                                  5966337                       # The number of ticks simulated per host second (ticks/s) ((Tick/Second))
hostMemory                                   11454124                       # Number of bytes of host memory used (Byte)
simInsts                                     85626800                       # Number of instructions simulated (Count)
simOps                                      138670832                       # Number of ops (including micro ops) simulated (Count)
hostInstRate                                    87328                       # Simulator instruction rate (inst/s) ((Count/Second))
hostOpRate                                     141425                       # Simulator op (including micro ops) rate (op/s) ((Count/Second))
system.clk_domain.clock                          1000                       # Clock period in ticks (Tick)
system.cpu0.numCycles                        11607158                       # Number of cpu cycles simulated (Cycle)
system.cpu0.numWorkItemsStarted                     0                       # Number of work items this cpu started (Count)
system.cpu0.numWorkItemsCompleted                   0                       # Number of work items this cpu completed (Count)
system.cpu0.instsAdded                        9778401                       # Number of instructions added to the IQ (excludes non-spec) (Count)
system.cpu0.nonSpecInstsAdded                    1095                       # Number of non-speculative instructions added to the IQ (Count)
system.cpu0.instsIssued                       9383962                       # Number of instructions issued (Count)
system.cpu0.squashedInstsIssued                  2856                       # Number of squashed instructions issued (Count)
system.cpu0.squashedInstsExamined             1112569                       # Number of squashed instructions iterated over during squash; mainly for profiling (Count)
system.cpu0.squashedOperandsExamined          2387957                       # Number of squashed operands that are examined and possibly removed from graph (Count)
system.cpu0.squashedNonSpecRemoved                242                       # Number of squashed non-spec instructions that were removed (Count)
system.cpu0.numIssuedDist::samples           10456332                       # Number of insts issued each cycle (Count)
system.cpu0.numIssuedDist::mean              0.897443                       # Number of insts issued each cycle (Count)
system.cpu0.numIssuedDist::stdev             1.652243                       # Number of insts issued each cycle (Count)
system.cpu0.numIssuedDist::underflows               0      0.00%      0.00% # Number of insts issued each cycle (Count)
system.cpu0.numIssuedDist::0                  7504203     71.77%     71.77% # Number of insts issued each cycle (Count)
system.cpu0.numIssuedDist::1                   342988      3.28%     75.05% # Number of insts issued each cycle (Count)
system.cpu0.numIssuedDist::2                   769375      7.36%     82.41% # Number of insts issued each cycle (Count)
system.cpu0.numIssuedDist::3                   806307      7.71%     90.12% # Number of insts issued each cycle (Count)
system.cpu0.numIssuedDist::4                   496692      4.75%     94.87% # Number of insts issued each cycle (Count)
system.cpu0.numIssuedDist::5                   276257      2.64%     97.51% # Number of insts issued each cycle (Count)
system.cpu0.numIssuedDist::6                   147717      1.41%     98.92% # Number of insts issued each cycle (Count)
system.cpu0.numIssuedDist::7                    73396      0.70%     99.62% # Number of insts issued each cycle (Count)
system.cpu0.numIssuedDist::8                    39397      0.38%    100.00% # Number of insts issued each cycle (Count)
system.cpu0.numIssuedDist::overflows                0      0.00%    100.00% # Number of insts issued each cycle (Count)
system.cpu0.numIssuedDist::min_value                0                       # Number of insts issued each cycle (Count)
system.cpu0.numIssuedDist::max_value                8                       # Number of insts issued each cycle (Count)
system.cpu0.numIssuedDist::total             10456332                       # Number of insts issued each cycle (Count)
system.cpu0.statFuBusy::No_OpClass                  0      0.00%      0.00% # attempts to use FU when none available (Count)
system.cpu0.statFuBusy::IntAlu                  43612     65.81%     65.81% # attempts to use FU when none available (Count)
system.cpu0.statFuBusy::IntMult                     0      0.00%     65.81% # attempts to use FU when none available (Count)
system.cpu0.statFuBusy::IntDiv                      0      0.00%     65.81% # attempts to use FU when none available (Count)
system.cpu0.statFuBusy::FloatAdd                    0      0.00%     65.81% # attempts to use FU when none available (Count)
system.cpu0.statFuBusy::FloatCmp                    0      0.00%     65.81% # attempts to use FU when none available (Count)
system.cpu0.statFuBusy::FloatCvt                    2      0.00%     65.81% # attempts to use FU when none available (Count)
system.cpu0.statFuBusy::FloatMult                   0      0.00%     65.81% # attempts to use FU when none available (Count)
system.cpu0.statFuBusy::FloatMultAcc                0      0.00%     65.81% # attempts to use FU when none available (Count)
system.cpu0.statFuBusy::FloatDiv                    0      0.00%     65.81% # attempts to use FU when none available (Count)
system.cpu0.statFuBusy::FloatMisc                   0      0.00%     65.81% # attempts to use FU when none available (Count)
system.cpu0.statFuBusy::FloatSqrt                   0      0.00%     65.81% # attempts to use FU when none available (Count)
system.cpu0.statFuBusy::SimdAdd                     0      0.00%     65.81% # attempts to use FU when none available (Count)
system.cpu0.statFuBusy::SimdAddAcc                  0      0.00%     65.81% # attempts to use FU when none available (Count)
system.cpu0.statFuBusy::SimdAlu                   124      0.19%     66.00% # attempts to use FU when none available (Count)
system.cpu0.statFuBusy::SimdCmp                     0      0.00%     66.00% # attempts to use FU when none available (Count)
system.cpu0.statFuBusy::SimdCvt                   176      0.27%     66.26% # attempts to use FU when none available (Count)
system.cpu0.statFuBusy::SimdMisc                    0      0.00%     66.26% # attempts to use FU when none available (Count)
system.cpu0.statFuBusy::SimdMult                    0      0.00%     66.26% # attempts to use FU when none available (Count)
system.cpu0.statFuBusy::SimdMultAcc                 0      0.00%     66.26% # attempts to use FU when none available (Count)
system.cpu0.statFuBusy::SimdShift                 213      0.32%     66.58% # attempts to use FU when none available (Count)
system.cpu0.statFuBusy::SimdShiftAcc                0      0.00%     66.58% # attempts to use FU when none available (Count)
system.cpu0.statFuBusy::SimdDiv                     0      0.00%     66.58% # attempts to use FU when none available (Count)
system.cpu0.statFuBusy::SimdSqrt                    0      0.00%     66.58% # attempts to use FU when none available (Count)
system.cpu0.statFuBusy::SimdFloatAdd                0      0.00%     66.58% # attempts to use FU when none available (Count)
system.cpu0.statFuBusy::SimdFloatAlu                0      0.00%     66.58% # attempts to use FU when none available (Count)
system.cpu0.statFuBusy::SimdFloatCmp                0      0.00%     66.58% # attempts to use FU when none available (Count)
system.cpu0.statFuBusy::SimdFloatCvt                0      0.00%     66.58% # attempts to use FU when none available (Count)
system.cpu0.statFuBusy::SimdFloatDiv                0      0.00%     66.58% # attempts to use FU when none available (Count)
system.cpu0.statFuBusy::SimdFloatMisc               0      0.00%     66.58% # attempts to use FU when none available (Count)
system.cpu0.statFuBusy::SimdFloatMult               0      0.00%     66.58% # attempts to use FU when none available (Count)
system.cpu0.statFuBusy::SimdFloatMultAcc            0      0.00%     66.58% # attempts to use FU when none available (Count)
system.cpu0.statFuBusy::SimdFloatSqrt               0      0.00%     66.58% # attempts to use FU when none available (Count)
system.cpu0.statFuBusy::SimdReduceAdd               0      0.00%     66.58% # attempts to use FU when none available (Count)
system.cpu0.statFuBusy::SimdReduceAlu               0      0.00%     66.58% # attempts to use FU when none available (Count)
system.cpu0.statFuBusy::SimdReduceCmp               0      0.00%     66.58% # attempts to use FU when none available (Count)
system.cpu0.statFuBusy::SimdFloatReduceAdd            0      0.00%     66.58% # attempts to use FU when none available (Count)
system.cpu0.statFuBusy::SimdFloatReduceCmp            0      0.00%     66.58% # attempts to use FU when none available (Count)
system.cpu0.statFuBusy::SimdAes                     0      0.00%     66.58% # attempts to use FU when none available (Count)
system.cpu0.statFuBusy::SimdAesMix                  0      0.00%     66.58% # attempts to use FU when none available (Count)
system.cpu0.statFuBusy::SimdSha1Hash                0      0.00%     66.58% # attempts to use FU when none available (Count)
system.cpu0.statFuBusy::SimdSha1Hash2               0      0.00%     66.58% # attempts to use FU when none available (Count)
system.cpu0.statFuBusy::SimdSha256Hash              0      0.00%     66.58% # attempts to use FU when none available (Count)
system.cpu0.statFuBusy::SimdSha256Hash2             0      0.00%     66.58% # attempts to use FU when none available (Count)
system.cpu0.statFuBusy::SimdShaSigma2               0      0.00%     66.58% # attempts to use FU when none available (Count)
system.cpu0.statFuBusy::SimdShaSigma3               0      0.00%     66.58% # attempts to use FU when none available (Count)
system.cpu0.statFuBusy::SimdPredAlu                 0      0.00%     66.58% # attempts to use FU when none available (Count)
system.cpu0.statFuBusy::MemRead                 12500     18.86%     85.44% # attempts to use FU when none available (Count)
system.cpu0.statFuBusy::MemWrite                 7783     11.74%     97.19% # attempts to use FU when none available (Count)
system.cpu0.statFuBusy::FloatMemRead             1403      2.12%     99.30% # attempts to use FU when none available (Count)
system.cpu0.statFuBusy::FloatMemWrite             461      0.70%    100.00% # attempts to use FU when none available (Count)
system.cpu0.statFuBusy::IprAccess                   0      0.00%    100.00% # attempts to use FU when none available (Count)
system.cpu0.statFuBusy::InstPrefetch                0      0.00%    100.00% # attempts to use FU when none available (Count)
system.cpu0.statIssuedInstType_0::No_OpClass        43931      0.47%      0.47% # Number of instructions issued per FU type, per thread (Count)
system.cpu0.statIssuedInstType_0::IntAlu      8276773     88.20%     88.67% # Number of instructions issued per FU type, per thread (Count)
system.cpu0.statIssuedInstType_0::IntMult           35      0.00%     88.67% # Number of instructions issued per FU type, per thread (Count)
system.cpu0.statIssuedInstType_0::IntDiv        38630      0.41%     89.08% # Number of instructions issued per FU type, per thread (Count)
system.cpu0.statIssuedInstType_0::FloatAdd         4382      0.05%     89.13% # Number of instructions issued per FU type, per thread (Count)
system.cpu0.statIssuedInstType_0::FloatCmp            0      0.00%     89.13% # Number of instructions issued per FU type, per thread (Count)
system.cpu0.statIssuedInstType_0::FloatCvt         1660      0.02%     89.15% # Number of instructions issued per FU type, per thread (Count)
system.cpu0.statIssuedInstType_0::FloatMult            0      0.00%     89.15% # Number of instructions issued per FU type, per thread (Count)
system.cpu0.statIssuedInstType_0::FloatMultAcc            0      0.00%     89.15% # Number of instructions issued per FU type, per thread (Count)
system.cpu0.statIssuedInstType_0::FloatDiv            0      0.00%     89.15% # Number of instructions issued per FU type, per thread (Count)
system.cpu0.statIssuedInstType_0::FloatMisc            0      0.00%     89.15% # Number of instructions issued per FU type, per thread (Count)
system.cpu0.statIssuedInstType_0::FloatSqrt            0      0.00%     89.15% # Number of instructions issued per FU type, per thread (Count)
system.cpu0.statIssuedInstType_0::SimdAdd         8543      0.09%     89.24% # Number of instructions issued per FU type, per thread (Count)
system.cpu0.statIssuedInstType_0::SimdAddAcc            0      0.00%     89.24% # Number of instructions issued per FU type, per thread (Count)
system.cpu0.statIssuedInstType_0::SimdAlu        17280      0.18%     89.42% # Number of instructions issued per FU type, per thread (Count)
system.cpu0.statIssuedInstType_0::SimdCmp            0      0.00%     89.42% # Number of instructions issued per FU type, per thread (Count)
system.cpu0.statIssuedInstType_0::SimdCvt        18920      0.20%     89.62% # Number of instructions issued per FU type, per thread (Count)
system.cpu0.statIssuedInstType_0::SimdMisc         9006      0.10%     89.72% # Number of instructions issued per FU type, per thread (Count)
system.cpu0.statIssuedInstType_0::SimdMult            0      0.00%     89.72% # Number of instructions issued per FU type, per thread (Count)
system.cpu0.statIssuedInstType_0::SimdMultAcc            0      0.00%     89.72% # Number of instructions issued per FU type, per thread (Count)
system.cpu0.statIssuedInstType_0::SimdShift         3017      0.03%     89.75% # Number of instructions issued per FU type, per thread (Count)
system.cpu0.statIssuedInstType_0::SimdShiftAcc            0      0.00%     89.75% # Number of instructions issued per FU type, per thread (Count)
system.cpu0.statIssuedInstType_0::SimdDiv            0      0.00%     89.75% # Number of instructions issued per FU type, per thread (Count)
system.cpu0.statIssuedInstType_0::SimdSqrt            0      0.00%     89.75% # Number of instructions issued per FU type, per thread (Count)
system.cpu0.statIssuedInstType_0::SimdFloatAdd            0      0.00%     89.75% # Number of instructions issued per FU type, per thread (Count)
system.cpu0.statIssuedInstType_0::SimdFloatAlu            0      0.00%     89.75% # Number of instructions issued per FU type, per thread (Count)
system.cpu0.statIssuedInstType_0::SimdFloatCmp            0      0.00%     89.75% # Number of instructions issued per FU type, per thread (Count)
system.cpu0.statIssuedInstType_0::SimdFloatCvt            0      0.00%     89.75% # Number of instructions issued per FU type, per thread (Count)
system.cpu0.statIssuedInstType_0::SimdFloatDiv            0      0.00%     89.75% # Number of instructions issued per FU type, per thread (Count)
system.cpu0.statIssuedInstType_0::SimdFloatMisc            0      0.00%     89.75% # Number of instructions issued per FU type, per thread (Count)
system.cpu0.statIssuedInstType_0::SimdFloatMult            0      0.00%     89.75% # Number of instructions issued per FU type, per thread (Count)
system.cpu0.statIssuedInstType_0::SimdFloatMultAcc            0      0.00%     89.75% # Number of instructions issued per FU type, per thread (Count)
system.cpu0.statIssuedInstType_0::SimdFloatSqrt            0      0.00%     89.75% # Number of instructions issued per FU type, per thread (Count)
system.cpu0.statIssuedInstType_0::SimdReduceAdd            0      0.00%     89.75% # Number of instructions issued per FU type, per thread (Count)
system.cpu0.statIssuedInstType_0::SimdReduceAlu            0      0.00%     89.75% # Number of instructions issued per FU type, per thread (Count)
system.cpu0.statIssuedInstType_0::SimdReduceCmp            0      0.00%     89.75% # Number of instructions issued per FU type, per thread (Count)
system.cpu0.statIssuedInstType_0::SimdFloatReduceAdd            0      0.00%     89.75% # Number of instructions issued per FU type, per thread (Count)
system.cpu0.statIssuedInstType_0::SimdFloatReduceCmp            0      0.00%     89.75% # Number of instructions issued per FU type, per thread (Count)
system.cpu0.statIssuedInstType_0::SimdAes            0      0.00%     89.75% # Number of instructions issued per FU type, per thread (Count)
system.cpu0.statIssuedInstType_0::SimdAesMix            0      0.00%     89.75% # Number of instructions issued per FU type, per thread (Count)
system.cpu0.statIssuedInstType_0::SimdSha1Hash            0      0.00%     89.75% # Number of instructions issued per FU type, per thread (Count)
system.cpu0.statIssuedInstType_0::SimdSha1Hash2            0      0.00%     89.75% # Number of instructions issued per FU type, per thread (Count)
system.cpu0.statIssuedInstType_0::SimdSha256Hash            0      0.00%     89.75% # Number of instructions issued per FU type, per thread (Count)
system.cpu0.statIssuedInstType_0::SimdSha256Hash2            0      0.00%     89.75% # Number of instructions issued per FU type, per thread (Count)
system.cpu0.statIssuedInstType_0::SimdShaSigma2            0      0.00%     89.75% # Number of instructions issued per FU type, per thread (Count)
system.cpu0.statIssuedInstType_0::SimdShaSigma3            0      0.00%     89.75% # Number of instructions issued per FU type, per thread (Count)
system.cpu0.statIssuedInstType_0::SimdPredAlu            0      0.00%     89.75% # Number of instructions issued per FU type, per thread (Count)
system.cpu0.statIssuedInstType_0::MemRead       674869      7.19%     96.94% # Number of instructions issued per FU type, per thread (Count)
system.cpu0.statIssuedInstType_0::MemWrite       234620      2.50%     99.44% # Number of instructions issued per FU type, per thread (Count)
system.cpu0.statIssuedInstType_0::FloatMemRead        33962      0.36%     99.80% # Number of instructions issued per FU type, per thread (Count)
system.cpu0.statIssuedInstType_0::FloatMemWrite        18334      0.20%    100.00% # Number of instructions issued per FU type, per thread (Count)
system.cpu0.statIssuedInstType_0::IprAccess            0      0.00%    100.00% # Number of instructions issued per FU type, per thread (Count)
system.cpu0.statIssuedInstType_0::InstPrefetch            0      0.00%    100.00% # Number of instructions issued per FU type, per thread (Count)
system.cpu0.statIssuedInstType_0::total       9383962                       # Number of instructions issued per FU type, per thread (Count)
system.cpu0.issueRate                        0.808463                       # Inst issue rate ((Count/Cycle))
system.cpu0.fuBusy                              66274                       # FU busy when requested (Count)
system.cpu0.fuBusyRate                       0.007062                       # FU busy rate (busy events/executed inst) ((Count/Count))
system.cpu0.intInstQueueReads                29058189                       # Number of integer instruction queue reads (Count)
system.cpu0.intInstQueueWrites               10714315                       # Number of integer instruction queue writes (Count)
system.cpu0.intInstQueueWakeupAccesses        9206312                       # Number of integer instruction queue wakeup accesses (Count)
system.cpu0.fpInstQueueReads                   235197                       # Number of floating instruction queue reads (Count)
system.cpu0.fpInstQueueWrites                  179001                       # Number of floating instruction queue writes (Count)
system.cpu0.fpInstQueueWakeupAccesses          112620                       # Number of floating instruction queue wakeup accesses (Count)
system.cpu0.vecInstQueueReads                       0                       # Number of vector instruction queue reads (Count)
system.cpu0.vecInstQueueWrites                      0                       # Number of vector instruction queue writes (Count)
system.cpu0.vecInstQueueWakeupAccesses              0                       # Number of vector instruction queue wakeup accesses (Count)
system.cpu0.intAluAccesses                    9287664                       # Number of integer alu accesses (Count)
system.cpu0.fpAluAccesses                      118641                       # Number of floating point alu accesses (Count)
system.cpu0.vecAluAccesses                          0                       # Number of vector alu accesses (Count)
system.cpu0.numInsts                          9349474                       # Number of executed instructions (Count)
system.cpu0.numLoadInsts                       700681                       # Number of load instructions executed (Count)
system.cpu0.numSquashedInsts                    34488                       # Number of squashed instructions skipped in execute (Count)
system.cpu0.numSwp                                  0                       # Number of swp insts executed (Count)
system.cpu0.numNop                                  0                       # Number of nop insts executed (Count)
system.cpu0.numRefs                            951586                       # Number of memory reference insts executed (Count)
system.cpu0.numBranches                        645621                       # Number of branches executed (Count)
system.cpu0.numStoreInsts                      250905                       # Number of stores executed (Count)
system.cpu0.numRate                          0.805492                       # Inst execution rate ((Count/Cycle))
system.cpu0.timesIdled                           2381                       # Number of times that the entire CPU went into an idle state and unscheduled itself (Count)
system.cpu0.idleCycles                        1150826                       # Total number of cycles that the CPU has spent unscheduled due to idling (Cycle)
system.cpu0.committedInsts                    5351675                       # Number of Instructions Simulated (Count)
system.cpu0.committedOps                      8666927                       # Number of Ops (including micro ops) Simulated (Count)
system.cpu0.cpi                              2.168883                       # CPI: Cycles Per Instruction ((Cycle/Count))
system.cpu0.totalCpi                         2.168883                       # CPI: Total CPI of All Threads ((Cycle/Count))
system.cpu0.ipc                              0.461067                       # IPC: Instructions Per Cycle ((Count/Cycle))
system.cpu0.totalIpc                         0.461067                       # IPC: Total IPC of All Threads ((Count/Cycle))
system.cpu0.intRegfileReads                  15502937                       # Number of integer regfile reads (Count)
system.cpu0.intRegfileWrites                  7572873                       # Number of integer regfile writes (Count)
system.cpu0.fpRegfileReads                     153327                       # Number of floating regfile reads (Count)
system.cpu0.fpRegfileWrites                     85002                       # Number of floating regfile writes (Count)
system.cpu0.ccRegfileReads                    9339144                       # number of cc regfile reads (Count)
system.cpu0.ccRegfileWrites                   4909062                       # number of cc regfile writes (Count)
system.cpu0.miscRegfileReads                  2286749                       # number of misc regfile reads (Count)
system.cpu0.miscRegfileWrites                     846                       # number of misc regfile writes (Count)
system.cpu0.MemDepUnit__0.insertedLoads        737362                       # Number of loads inserted to the mem dependence unit. (Count)
system.cpu0.MemDepUnit__0.insertedStores       268794                       # Number of stores inserted to the mem dependence unit. (Count)
system.cpu0.MemDepUnit__0.conflictingLoads        48159                       # Number of conflicting loads. (Count)
system.cpu0.MemDepUnit__0.conflictingStores        32055                       # Number of conflicting stores. (Count)
system.cpu0.MemDepUnit__1.insertedLoads             0                       # Number of loads inserted to the mem dependence unit. (Count)
system.cpu0.MemDepUnit__1.insertedStores            0                       # Number of stores inserted to the mem dependence unit. (Count)
system.cpu0.MemDepUnit__1.conflictingLoads            0                       # Number of conflicting loads. (Count)
system.cpu0.MemDepUnit__1.conflictingStores            0                       # Number of conflicting stores. (Count)
system.cpu0.MemDepUnit__2.insertedLoads             0                       # Number of loads inserted to the mem dependence unit. (Count)
system.cpu0.MemDepUnit__2.insertedStores            0                       # Number of stores inserted to the mem dependence unit. (Count)
system.cpu0.MemDepUnit__2.conflictingLoads            0                       # Number of conflicting loads. (Count)
system.cpu0.MemDepUnit__2.conflictingStores            0                       # Number of conflicting stores. (Count)
system.cpu0.MemDepUnit__3.insertedLoads             0                       # Number of loads inserted to the mem dependence unit. (Count)
system.cpu0.MemDepUnit__3.insertedStores            0                       # Number of stores inserted to the mem dependence unit. (Count)
system.cpu0.MemDepUnit__3.conflictingLoads            0                       # Number of conflicting loads. (Count)
system.cpu0.MemDepUnit__3.conflictingStores            0                       # Number of conflicting stores. (Count)
system.cpu0.branchPred.lookups                 768198                       # Number of BP lookups (Count)
system.cpu0.branchPred.condPredicted           707385                       # Number of conditional branches predicted (Count)
system.cpu0.branchPred.condIncorrect            19550                       # Number of conditional branches incorrect (Count)
system.cpu0.branchPred.BTBLookups              494269                       # Number of BTB lookups (Count)
system.cpu0.branchPred.BTBUpdates                9401                       # Number of BTB updates (Count)
system.cpu0.branchPred.BTBHits                 490028                       # Number of BTB hits (Count)
system.cpu0.branchPred.BTBHitRatio           0.991420                       # BTB Hit Ratio (Ratio)
system.cpu0.branchPred.RASUsed                  14297                       # Number of times the RAS was used to get a target. (Count)
system.cpu0.branchPred.RASIncorrect                 8                       # Number of incorrect RAS predictions. (Count)
system.cpu0.branchPred.indirectLookups          10046                       # Number of indirect predictor lookups. (Count)
system.cpu0.branchPred.indirectHits              5320                       # Number of indirect target hits. (Count)
system.cpu0.branchPred.indirectMisses            4726                       # Number of indirect misses. (Count)
system.cpu0.branchPred.indirectMispredicted         1256                       # Number of mispredicted indirect branches. (Count)
system.cpu0.commit.commitSquashedInsts        1103426                       # The number of squashed insts skipped by commit (Count)
system.cpu0.commit.commitNonSpecStalls            853                       # The number of times commit has been forced to stall to communicate backwards (Count)
system.cpu0.commit.branchMispredicts            20796                       # The number of times a branch was mispredicted (Count)
system.cpu0.commit.numCommittedDist::samples     10295752                       # Number of insts commited each cycle (Count)
system.cpu0.commit.numCommittedDist::mean     0.841796                       # Number of insts commited each cycle (Count)
system.cpu0.commit.numCommittedDist::stdev     1.946682                       # Number of insts commited each cycle (Count)
system.cpu0.commit.numCommittedDist::underflows            0      0.00%      0.00% # Number of insts commited each cycle (Count)
system.cpu0.commit.numCommittedDist::0        7667933     74.48%     74.48% # Number of insts commited each cycle (Count)
system.cpu0.commit.numCommittedDist::1         950577      9.23%     83.71% # Number of insts commited each cycle (Count)
system.cpu0.commit.numCommittedDist::2         530990      5.16%     88.87% # Number of insts commited each cycle (Count)
system.cpu0.commit.numCommittedDist::3         251647      2.44%     91.31% # Number of insts commited each cycle (Count)
system.cpu0.commit.numCommittedDist::4          49404      0.48%     91.79% # Number of insts commited each cycle (Count)
system.cpu0.commit.numCommittedDist::5         323177      3.14%     94.93% # Number of insts commited each cycle (Count)
system.cpu0.commit.numCommittedDist::6          23722      0.23%     95.16% # Number of insts commited each cycle (Count)
system.cpu0.commit.numCommittedDist::7          42820      0.42%     95.58% # Number of insts commited each cycle (Count)
system.cpu0.commit.numCommittedDist::8         455482      4.42%    100.00% # Number of insts commited each cycle (Count)
system.cpu0.commit.numCommittedDist::overflows            0      0.00%    100.00% # Number of insts commited each cycle (Count)
system.cpu0.commit.numCommittedDist::min_value            0                       # Number of insts commited each cycle (Count)
system.cpu0.commit.numCommittedDist::max_value            8                       # Number of insts commited each cycle (Count)
system.cpu0.commit.numCommittedDist::total     10295752                       # Number of insts commited each cycle (Count)
system.cpu0.commit.instsCommitted             5351675                       # Number of instructions committed (Count)
system.cpu0.commit.opsCommitted               8666927                       # Number of ops (including micro ops) committed (Count)
system.cpu0.commit.memRefs                     811798                       # Number of memory references committed (Count)
system.cpu0.commit.loads                       586917                       # Number of loads committed (Count)
system.cpu0.commit.amos                             0                       # Number of atomic instructions committed (Count)
system.cpu0.commit.membars                          2                       # Number of memory barriers committed (Count)
system.cpu0.commit.branches                    607701                       # Number of branches committed (Count)
system.cpu0.commit.vectorInstructions               0                       # Number of committed Vector instructions. (Count)
system.cpu0.commit.floating                     82441                       # Number of committed floating point instructions. (Count)
system.cpu0.commit.integer                    8578220                       # Number of committed integer instructions. (Count)
system.cpu0.commit.functionCalls                10325                       # Number of function calls committed. (Count)
system.cpu0.commit.committedInstType_0::No_OpClass        36235      0.42%      0.42% # Class of committed instruction (Count)
system.cpu0.commit.committedInstType_0::IntAlu      7736760     89.27%     89.69% # Class of committed instruction (Count)
system.cpu0.commit.committedInstType_0::IntMult           29      0.00%     89.69% # Class of committed instruction (Count)
system.cpu0.commit.committedInstType_0::IntDiv        36267      0.42%     90.10% # Class of committed instruction (Count)
system.cpu0.commit.committedInstType_0::FloatAdd         3202      0.04%     90.14% # Class of committed instruction (Count)
system.cpu0.commit.committedInstType_0::FloatCmp            0      0.00%     90.14% # Class of committed instruction (Count)
system.cpu0.commit.committedInstType_0::FloatCvt         1504      0.02%     90.16% # Class of committed instruction (Count)
system.cpu0.commit.committedInstType_0::FloatMult            0      0.00%     90.16% # Class of committed instruction (Count)
system.cpu0.commit.committedInstType_0::FloatMultAcc            0      0.00%     90.16% # Class of committed instruction (Count)
system.cpu0.commit.committedInstType_0::FloatDiv            0      0.00%     90.16% # Class of committed instruction (Count)
system.cpu0.commit.committedInstType_0::FloatMisc            0      0.00%     90.16% # Class of committed instruction (Count)
system.cpu0.commit.committedInstType_0::FloatSqrt            0      0.00%     90.16% # Class of committed instruction (Count)
system.cpu0.commit.committedInstType_0::SimdAdd         6750      0.08%     90.24% # Class of committed instruction (Count)
system.cpu0.commit.committedInstType_0::SimdAddAcc            0      0.00%     90.24% # Class of committed instruction (Count)
system.cpu0.commit.committedInstType_0::SimdAlu        12220      0.14%     90.38% # Class of committed instruction (Count)
system.cpu0.commit.committedInstType_0::SimdCmp            0      0.00%     90.38% # Class of committed instruction (Count)
system.cpu0.commit.committedInstType_0::SimdCvt        13196      0.15%     90.53% # Class of committed instruction (Count)
system.cpu0.commit.committedInstType_0::SimdMisc         7208      0.08%     90.61% # Class of committed instruction (Count)
system.cpu0.commit.committedInstType_0::SimdMult            0      0.00%     90.61% # Class of committed instruction (Count)
system.cpu0.commit.committedInstType_0::SimdMultAcc            0      0.00%     90.61% # Class of committed instruction (Count)
system.cpu0.commit.committedInstType_0::SimdShift         1758      0.02%     90.63% # Class of committed instruction (Count)
system.cpu0.commit.committedInstType_0::SimdShiftAcc            0      0.00%     90.63% # Class of committed instruction (Count)
system.cpu0.commit.committedInstType_0::SimdDiv            0      0.00%     90.63% # Class of committed instruction (Count)
system.cpu0.commit.committedInstType_0::SimdSqrt            0      0.00%     90.63% # Class of committed instruction (Count)
system.cpu0.commit.committedInstType_0::SimdFloatAdd            0      0.00%     90.63% # Class of committed instruction (Count)
system.cpu0.commit.committedInstType_0::SimdFloatAlu            0      0.00%     90.63% # Class of committed instruction (Count)
system.cpu0.commit.committedInstType_0::SimdFloatCmp            0      0.00%     90.63% # Class of committed instruction (Count)
system.cpu0.commit.committedInstType_0::SimdFloatCvt            0      0.00%     90.63% # Class of committed instruction (Count)
system.cpu0.commit.committedInstType_0::SimdFloatDiv            0      0.00%     90.63% # Class of committed instruction (Count)
system.cpu0.commit.committedInstType_0::SimdFloatMisc            0      0.00%     90.63% # Class of committed instruction (Count)
system.cpu0.commit.committedInstType_0::SimdFloatMult            0      0.00%     90.63% # Class of committed instruction (Count)
system.cpu0.commit.committedInstType_0::SimdFloatMultAcc            0      0.00%     90.63% # Class of committed instruction (Count)
system.cpu0.commit.committedInstType_0::SimdFloatSqrt            0      0.00%     90.63% # Class of committed instruction (Count)
system.cpu0.commit.committedInstType_0::SimdReduceAdd            0      0.00%     90.63% # Class of committed instruction (Count)
system.cpu0.commit.committedInstType_0::SimdReduceAlu            0      0.00%     90.63% # Class of committed instruction (Count)
system.cpu0.commit.committedInstType_0::SimdReduceCmp            0      0.00%     90.63% # Class of committed instruction (Count)
system.cpu0.commit.committedInstType_0::SimdFloatReduceAdd            0      0.00%     90.63% # Class of committed instruction (Count)
system.cpu0.commit.committedInstType_0::SimdFloatReduceCmp            0      0.00%     90.63% # Class of committed instruction (Count)
system.cpu0.commit.committedInstType_0::SimdAes            0      0.00%     90.63% # Class of committed instruction (Count)
system.cpu0.commit.committedInstType_0::SimdAesMix            0      0.00%     90.63% # Class of committed instruction (Count)
system.cpu0.commit.committedInstType_0::SimdSha1Hash            0      0.00%     90.63% # Class of committed instruction (Count)
system.cpu0.commit.committedInstType_0::SimdSha1Hash2            0      0.00%     90.63% # Class of committed instruction (Count)
system.cpu0.commit.committedInstType_0::SimdSha256Hash            0      0.00%     90.63% # Class of committed instruction (Count)
system.cpu0.commit.committedInstType_0::SimdSha256Hash2            0      0.00%     90.63% # Class of committed instruction (Count)
system.cpu0.commit.committedInstType_0::SimdShaSigma2            0      0.00%     90.63% # Class of committed instruction (Count)
system.cpu0.commit.committedInstType_0::SimdShaSigma3            0      0.00%     90.63% # Class of committed instruction (Count)
system.cpu0.commit.committedInstType_0::SimdPredAlu            0      0.00%     90.63% # Class of committed instruction (Count)
system.cpu0.commit.committedInstType_0::MemRead       565448      6.52%     97.16% # Class of committed instruction (Count)
system.cpu0.commit.committedInstType_0::MemWrite       210647      2.43%     99.59% # Class of committed instruction (Count)
system.cpu0.commit.committedInstType_0::FloatMemRead        21469      0.25%     99.84% # Class of committed instruction (Count)
system.cpu0.commit.committedInstType_0::FloatMemWrite        14234      0.16%    100.00% # Class of committed instruction (Count)
system.cpu0.commit.committedInstType_0::IprAccess            0      0.00%    100.00% # Class of committed instruction (Count)
system.cpu0.commit.committedInstType_0::InstPrefetch            0      0.00%    100.00% # Class of committed instruction (Count)
system.cpu0.commit.committedInstType_0::total      8666927                       # Class of committed instruction (Count)
system.cpu0.commit.commitEligibleSamples       455482                       # number cycles where commit BW limit reached (Cycle)
system.cpu0.decode.idleCycles                  699519                       # Number of cycles decode is idle (Cycle)
system.cpu0.decode.blockedCycles              8372785                       # Number of cycles decode is blocked (Cycle)
system.cpu0.decode.runCycles                   697214                       # Number of cycles decode is running (Cycle)
system.cpu0.decode.unblockCycles               664239                       # Number of cycles decode is unblocking (Cycle)
system.cpu0.decode.squashCycles                 22575                       # Number of cycles decode is squashing (Cycle)
system.cpu0.decode.branchResolved              473957                       # Number of times decode resolved a branch (Count)
system.cpu0.decode.branchMispred                 1222                       # Number of times decode detected a branch misprediction (Count)
system.cpu0.decode.decodedInsts               9995647                       # Number of instructions handled by decode (Count)
system.cpu0.decode.squashedInsts                 5763                       # Number of squashed instructions handled by decode (Count)
system.cpu0.fetch.icacheStallCycles            544358                       # Number of cycles fetch is stalled on an Icache miss (Cycle)
system.cpu0.fetch.insts                       6264186                       # Number of instructions fetch has processed (Count)
system.cpu0.fetch.branches                     768198                       # Number of branches that fetch encountered (Count)
system.cpu0.fetch.predictedBranches            509645                       # Number of branches that fetch has predicted taken (Count)
system.cpu0.fetch.cycles                      9655198                       # Number of cycles fetch has run and was not squashing or blocked (Cycle)
system.cpu0.fetch.squashCycles                  47540                       # Number of cycles fetch has spent squashing (Cycle)
system.cpu0.fetch.miscStallCycles               12553                       # Number of cycles fetch has spent waiting on interrupts, or bad addresses, or out of MSHRs (Cycle)
system.cpu0.fetch.pendingTrapStallCycles        16451                       # Number of stall cycles due to pending traps (Cycle)
system.cpu0.fetch.icacheWaitRetryStallCycles       204002                       # Number of stall cycles due to full MSHR (Cycle)
system.cpu0.fetch.cacheLines                   349013                       # Number of cache lines fetched (Count)
system.cpu0.fetch.icacheSquashes                 6170                       # Number of outstanding Icache misses that were squashed (Count)
system.cpu0.fetch.nisnDist::samples          10456332                       # Number of instructions fetched each cycle (Total) (Count)
system.cpu0.fetch.nisnDist::mean             0.988330                       # Number of instructions fetched each cycle (Total) (Count)
system.cpu0.fetch.nisnDist::stdev            2.428430                       # Number of instructions fetched each cycle (Total) (Count)
system.cpu0.fetch.nisnDist::underflows              0      0.00%      0.00% # Number of instructions fetched each cycle (Total) (Count)
system.cpu0.fetch.nisnDist::0                 8733839     83.53%     83.53% # Number of instructions fetched each cycle (Total) (Count)
system.cpu0.fetch.nisnDist::1                  106707      1.02%     84.55% # Number of instructions fetched each cycle (Total) (Count)
system.cpu0.fetch.nisnDist::2                   88628      0.85%     85.39% # Number of instructions fetched each cycle (Total) (Count)
system.cpu0.fetch.nisnDist::3                  132816      1.27%     86.67% # Number of instructions fetched each cycle (Total) (Count)
system.cpu0.fetch.nisnDist::4                  224554      2.15%     88.81% # Number of instructions fetched each cycle (Total) (Count)
system.cpu0.fetch.nisnDist::5                  112289      1.07%     89.89% # Number of instructions fetched each cycle (Total) (Count)
system.cpu0.fetch.nisnDist::6                   78637      0.75%     90.64% # Number of instructions fetched each cycle (Total) (Count)
system.cpu0.fetch.nisnDist::7                  110482      1.06%     91.70% # Number of instructions fetched each cycle (Total) (Count)
system.cpu0.fetch.nisnDist::8                  868380      8.30%    100.00% # Number of instructions fetched each cycle (Total) (Count)
system.cpu0.fetch.nisnDist::overflows               0      0.00%    100.00% # Number of instructions fetched each cycle (Total) (Count)
system.cpu0.fetch.nisnDist::min_value               0                       # Number of instructions fetched each cycle (Total) (Count)
system.cpu0.fetch.nisnDist::max_value               8                       # Number of instructions fetched each cycle (Total) (Count)
system.cpu0.fetch.nisnDist::total            10456332                       # Number of instructions fetched each cycle (Total) (Count)
system.cpu0.fetch.branchRate                 0.066183                       # Number of branch fetches per cycle (Ratio)
system.cpu0.fetch.rate                       0.539683                       # Number of inst fetches per cycle ((Count/Cycle))
system.cpu0.iew.idleCycles                          0                       # Number of cycles IEW is idle (Cycle)
system.cpu0.iew.squashCycles                    22575                       # Number of cycles IEW is squashing (Cycle)
system.cpu0.iew.blockCycles                   4965040                       # Number of cycles IEW is blocking (Cycle)
system.cpu0.iew.unblockCycles                  147393                       # Number of cycles IEW is unblocking (Cycle)
system.cpu0.iew.dispatchedInsts               9779496                       # Number of instructions dispatched to IQ (Count)
system.cpu0.iew.dispSquashedInsts                1411                       # Number of squashed instructions skipped by dispatch (Count)
system.cpu0.iew.dispLoadInsts                  737362                       # Number of dispatched load instructions (Count)
system.cpu0.iew.dispStoreInsts                 268794                       # Number of dispatched store instructions (Count)
system.cpu0.iew.dispNonSpecInsts                  899                       # Number of dispatched non-speculative instructions (Count)
system.cpu0.iew.iqFullEvents                     7438                       # Number of times the IQ has become full, causing a stall (Count)
system.cpu0.iew.lsqFullEvents                  134789                       # Number of times the LSQ has become full, causing a stall (Count)
system.cpu0.iew.memOrderViolationEvents          1263                       # Number of memory order violations (Count)
system.cpu0.iew.predictedTakenIncorrect          9547                       # Number of branches that were predicted taken incorrectly (Count)
system.cpu0.iew.predictedNotTakenIncorrect        13487                       # Number of branches that were predicted not taken incorrectly (Count)
system.cpu0.iew.branchMispredicts               23034                       # Number of branch mispredicts detected at execute (Count)
system.cpu0.iew.instsToCommit                 9330853                       # Cumulative count of insts sent to commit (Count)
system.cpu0.iew.writebackCount                9318932                       # Cumulative count of insts written-back (Count)
system.cpu0.iew.producerInst                  7931941                       # Number of instructions producing a value (Count)
system.cpu0.iew.consumerInst                 18357549                       # Number of instructions consuming a value (Count)
system.cpu0.iew.wbRate                       0.802861                       # Insts written-back per cycle ((Count/Cycle))
system.cpu0.iew.wbFanout                     0.432081                       # Average fanout of values written-back ((Count/Count))
system.cpu0.interrupts.clk_domain.clock          8000                       # Clock period in ticks (Tick)
system.cpu0.lsq0.forwLoads                      60679                       # Number of loads that had data forwarded from stores (Count)
system.cpu0.lsq0.squashedLoads                 150445                       # Number of loads squashed (Count)
system.cpu0.lsq0.ignoredResponses                 100                       # Number of memory responses ignored because the instruction is squashed (Count)
system.cpu0.lsq0.memOrderViolation               1263                       # Number of memory ordering violations (Count)
system.cpu0.lsq0.squashedStores                 43913                       # Number of stores squashed (Count)
system.cpu0.lsq0.rescheduledLoads                  15                       # Number of loads that were rescheduled (Count)
system.cpu0.lsq0.blockedByCache                  2118                       # Number of times an access to memory failed due to the cache being blocked (Count)
system.cpu0.lsq0.loadToUse::samples            586839                       # Distribution of cycle latency between the first time a load is issued and its completion (Unspecified)
system.cpu0.lsq0.loadToUse::mean            55.203720                       # Distribution of cycle latency between the first time a load is issued and its completion (Unspecified)
system.cpu0.lsq0.loadToUse::stdev          197.817462                       # Distribution of cycle latency between the first time a load is issued and its completion (Unspecified)
system.cpu0.lsq0.loadToUse::0-9                541235     92.23%     92.23% # Distribution of cycle latency between the first time a load is issued and its completion (Unspecified)
system.cpu0.lsq0.loadToUse::10-19                  58      0.01%     92.24% # Distribution of cycle latency between the first time a load is issued and its completion (Unspecified)
system.cpu0.lsq0.loadToUse::20-29                  99      0.02%     92.26% # Distribution of cycle latency between the first time a load is issued and its completion (Unspecified)
system.cpu0.lsq0.loadToUse::30-39                 117      0.02%     92.28% # Distribution of cycle latency between the first time a load is issued and its completion (Unspecified)
system.cpu0.lsq0.loadToUse::40-49                  78      0.01%     92.29% # Distribution of cycle latency between the first time a load is issued and its completion (Unspecified)
system.cpu0.lsq0.loadToUse::50-59                 167      0.03%     92.32% # Distribution of cycle latency between the first time a load is issued and its completion (Unspecified)
system.cpu0.lsq0.loadToUse::60-69                 113      0.02%     92.34% # Distribution of cycle latency between the first time a load is issued and its completion (Unspecified)
system.cpu0.lsq0.loadToUse::70-79                  98      0.02%     92.35% # Distribution of cycle latency between the first time a load is issued and its completion (Unspecified)
system.cpu0.lsq0.loadToUse::80-89                  71      0.01%     92.37% # Distribution of cycle latency between the first time a load is issued and its completion (Unspecified)
system.cpu0.lsq0.loadToUse::90-99                  68      0.01%     92.38% # Distribution of cycle latency between the first time a load is issued and its completion (Unspecified)
system.cpu0.lsq0.loadToUse::100-109                70      0.01%     92.39% # Distribution of cycle latency between the first time a load is issued and its completion (Unspecified)
system.cpu0.lsq0.loadToUse::110-119                56      0.01%     92.40% # Distribution of cycle latency between the first time a load is issued and its completion (Unspecified)
system.cpu0.lsq0.loadToUse::120-129                57      0.01%     92.41% # Distribution of cycle latency between the first time a load is issued and its completion (Unspecified)
system.cpu0.lsq0.loadToUse::130-139                50      0.01%     92.42% # Distribution of cycle latency between the first time a load is issued and its completion (Unspecified)
system.cpu0.lsq0.loadToUse::140-149                55      0.01%     92.43% # Distribution of cycle latency between the first time a load is issued and its completion (Unspecified)
system.cpu0.lsq0.loadToUse::150-159                57      0.01%     92.44% # Distribution of cycle latency between the first time a load is issued and its completion (Unspecified)
system.cpu0.lsq0.loadToUse::160-169                64      0.01%     92.45% # Distribution of cycle latency between the first time a load is issued and its completion (Unspecified)
system.cpu0.lsq0.loadToUse::170-179               137      0.02%     92.47% # Distribution of cycle latency between the first time a load is issued and its completion (Unspecified)
system.cpu0.lsq0.loadToUse::180-189               599      0.10%     92.57% # Distribution of cycle latency between the first time a load is issued and its completion (Unspecified)
system.cpu0.lsq0.loadToUse::190-199                42      0.01%     92.58% # Distribution of cycle latency between the first time a load is issued and its completion (Unspecified)
system.cpu0.lsq0.loadToUse::200-209                43      0.01%     92.59% # Distribution of cycle latency between the first time a load is issued and its completion (Unspecified)
system.cpu0.lsq0.loadToUse::210-219                81      0.01%     92.60% # Distribution of cycle latency between the first time a load is issued and its completion (Unspecified)
system.cpu0.lsq0.loadToUse::220-229               120      0.02%     92.62% # Distribution of cycle latency between the first time a load is issued and its completion (Unspecified)
system.cpu0.lsq0.loadToUse::230-239               172      0.03%     92.65% # Distribution of cycle latency between the first time a load is issued and its completion (Unspecified)
system.cpu0.lsq0.loadToUse::240-249              1091      0.19%     92.84% # Distribution of cycle latency between the first time a load is issued and its completion (Unspecified)
system.cpu0.lsq0.loadToUse::250-259                81      0.01%     92.85% # Distribution of cycle latency between the first time a load is issued and its completion (Unspecified)
system.cpu0.lsq0.loadToUse::260-269                49      0.01%     92.86% # Distribution of cycle latency between the first time a load is issued and its completion (Unspecified)
system.cpu0.lsq0.loadToUse::270-279                82      0.01%     92.87% # Distribution of cycle latency between the first time a load is issued and its completion (Unspecified)
system.cpu0.lsq0.loadToUse::280-289               178      0.03%     92.90% # Distribution of cycle latency between the first time a load is issued and its completion (Unspecified)
system.cpu0.lsq0.loadToUse::290-299               276      0.05%     92.95% # Distribution of cycle latency between the first time a load is issued and its completion (Unspecified)
system.cpu0.lsq0.loadToUse::overflows           41375      7.05%    100.00% # Distribution of cycle latency between the first time a load is issued and its completion (Unspecified)
system.cpu0.lsq0.loadToUse::min_value               2                       # Distribution of cycle latency between the first time a load is issued and its completion (Unspecified)
system.cpu0.lsq0.loadToUse::max_value            2342                       # Distribution of cycle latency between the first time a load is issued and its completion (Unspecified)
system.cpu0.lsq0.loadToUse::total              586839                       # Distribution of cycle latency between the first time a load is issued and its completion (Unspecified)
system.cpu0.mmu.dtb.rdAccesses                 694964                       # TLB accesses on read requests (Count)
system.cpu0.mmu.dtb.wrAccesses                 250915                       # TLB accesses on write requests (Count)
system.cpu0.mmu.dtb.rdMisses                     3192                       # TLB misses on read requests (Count)
system.cpu0.mmu.dtb.wrMisses                      416                       # TLB misses on write requests (Count)
system.cpu0.mmu.dtb.walker.power_state.pwrStateResidencyTicks::UNDEFINED   5850129500                       # Cumulative time (in ticks) in various power states (Tick)
system.cpu0.mmu.itb.rdAccesses                      0                       # TLB accesses on read requests (Count)
system.cpu0.mmu.itb.wrAccesses                 351540                       # TLB accesses on write requests (Count)
system.cpu0.mmu.itb.rdMisses                        0                       # TLB misses on read requests (Count)
system.cpu0.mmu.itb.wrMisses                     3107                       # TLB misses on write requests (Count)
system.cpu0.mmu.itb.walker.power_state.pwrStateResidencyTicks::UNDEFINED   5850129500                       # Cumulative time (in ticks) in various power states (Tick)
system.cpu0.power_state.pwrStateResidencyTicks::ON   5850129500                       # Cumulative time (in ticks) in various power states (Tick)
system.cpu0.rename.squashCycles                 22575                       # Number of cycles rename is squashing (Cycle)
system.cpu0.rename.idleCycles                  937238                       # Number of cycles rename is idle (Cycle)
system.cpu0.rename.blockCycles                6580095                       # Number of cycles rename is blocking (Cycle)
system.cpu0.rename.serializeStallCycles         22131                       # count of cycles rename stalled for serializing inst (Cycle)
system.cpu0.rename.runCycles                  1113545                       # Number of cycles rename is running (Cycle)
system.cpu0.rename.unblockCycles              1780748                       # Number of cycles rename is unblocking (Cycle)
system.cpu0.rename.renamedInsts               9903988                       # Number of instructions processed by rename (Count)
system.cpu0.rename.ROBFullEvents               101900                       # Number of times rename has blocked due to ROB full (Count)
system.cpu0.rename.IQFullEvents                930081                       # Number of times rename has blocked due to IQ full (Count)
system.cpu0.rename.LQFullEvents                149644                       # Number of times rename has blocked due to LQ full (Count)
system.cpu0.rename.SQFullEvents                493020                       # Number of times rename has blocked due to SQ full (Count)
system.cpu0.rename.fullRegistersEvents           2860                       # Number of times there has been no free registers (Count)
system.cpu0.rename.renamedOperands           22216720                       # Number of destination operands rename has renamed (Count)
system.cpu0.rename.lookups                   42258199                       # Number of register rename lookups that rename has made (Count)
system.cpu0.rename.intLookups                16530059                       # Number of integer rename lookups (Count)
system.cpu0.rename.fpLookups                   191673                       # Number of floating rename lookups (Count)
system.cpu0.rename.committedMaps             19719121                       # Number of HB maps that are committed (Count)
system.cpu0.rename.undoneMaps                 2497599                       # Number of HB maps that are undone due to squashing (Count)
system.cpu0.rename.serializing                    874                       # count of serializing insts renamed (Count)
system.cpu0.rename.tempSerializing                859                       # count of temporary serializing insts renamed (Count)
system.cpu0.rename.skidInsts                  3029922                       # count of insts added to the skid buffer (Count)
system.cpu0.rob.reads                        19602901                       # The number of ROB reads (Count)
system.cpu0.rob.writes                       19701530                       # The number of ROB writes (Count)
system.cpu0.thread_0.numInsts                 5351675                       # Number of Instructions committed (Count)
system.cpu0.thread_0.numOps                   8666927                       # Number of Ops committed (Count)
system.cpu0.thread_0.numMemRefs                     0                       # Number of Memory References (Count)
system.cpu0.workload.numSyscalls                   63                       # Number of system calls (Count)
system.cpu1.numCycles                        11114761                       # Number of cpu cycles simulated (Cycle)
system.cpu1.numWorkItemsStarted                     0                       # Number of work items this cpu started (Count)
system.cpu1.numWorkItemsCompleted                   0                       # Number of work items this cpu completed (Count)
system.cpu1.instsAdded                        9779763                       # Number of instructions added to the IQ (excludes non-spec) (Count)
system.cpu1.nonSpecInstsAdded                    1095                       # Number of non-speculative instructions added to the IQ (Count)
system.cpu1.instsIssued                       9384419                       # Number of instructions issued (Count)
system.cpu1.squashedInstsIssued                  2871                       # Number of squashed instructions issued (Count)
system.cpu1.squashedInstsExamined             1113931                       # Number of squashed instructions iterated over during squash; mainly for profiling (Count)
system.cpu1.squashedOperandsExamined          2391093                       # Number of squashed operands that are examined and possibly removed from graph (Count)
system.cpu1.squashedNonSpecRemoved                242                       # Number of squashed non-spec instructions that were removed (Count)
system.cpu1.numIssuedDist::samples           10055520                       # Number of insts issued each cycle (Count)
system.cpu1.numIssuedDist::mean              0.933260                       # Number of insts issued each cycle (Count)
system.cpu1.numIssuedDist::stdev             1.675096                       # Number of insts issued each cycle (Count)
system.cpu1.numIssuedDist::underflows               0      0.00%      0.00% # Number of insts issued each cycle (Count)
system.cpu1.numIssuedDist::0                  7103698     70.64%     70.64% # Number of insts issued each cycle (Count)
system.cpu1.numIssuedDist::1                   342722      3.41%     74.05% # Number of insts issued each cycle (Count)
system.cpu1.numIssuedDist::2                   769174      7.65%     81.70% # Number of insts issued each cycle (Count)
system.cpu1.numIssuedDist::3                   806308      8.02%     89.72% # Number of insts issued each cycle (Count)
system.cpu1.numIssuedDist::4                   496677      4.94%     94.66% # Number of insts issued each cycle (Count)
system.cpu1.numIssuedDist::5                   276301      2.75%     97.41% # Number of insts issued each cycle (Count)
system.cpu1.numIssuedDist::6                   147741      1.47%     98.88% # Number of insts issued each cycle (Count)
system.cpu1.numIssuedDist::7                    73426      0.73%     99.61% # Number of insts issued each cycle (Count)
system.cpu1.numIssuedDist::8                    39473      0.39%    100.00% # Number of insts issued each cycle (Count)
system.cpu1.numIssuedDist::overflows                0      0.00%    100.00% # Number of insts issued each cycle (Count)
system.cpu1.numIssuedDist::min_value                0                       # Number of insts issued each cycle (Count)
system.cpu1.numIssuedDist::max_value                8                       # Number of insts issued each cycle (Count)
system.cpu1.numIssuedDist::total             10055520                       # Number of insts issued each cycle (Count)
system.cpu1.statFuBusy::No_OpClass                  0      0.00%      0.00% # attempts to use FU when none available (Count)
system.cpu1.statFuBusy::IntAlu                  43738     65.88%     65.88% # attempts to use FU when none available (Count)
system.cpu1.statFuBusy::IntMult                     0      0.00%     65.88% # attempts to use FU when none available (Count)
system.cpu1.statFuBusy::IntDiv                      0      0.00%     65.88% # attempts to use FU when none available (Count)
system.cpu1.statFuBusy::FloatAdd                    0      0.00%     65.88% # attempts to use FU when none available (Count)
system.cpu1.statFuBusy::FloatCmp                    0      0.00%     65.88% # attempts to use FU when none available (Count)
system.cpu1.statFuBusy::FloatCvt                    0      0.00%     65.88% # attempts to use FU when none available (Count)
system.cpu1.statFuBusy::FloatMult                   0      0.00%     65.88% # attempts to use FU when none available (Count)
system.cpu1.statFuBusy::FloatMultAcc                0      0.00%     65.88% # attempts to use FU when none available (Count)
system.cpu1.statFuBusy::FloatDiv                    0      0.00%     65.88% # attempts to use FU when none available (Count)
system.cpu1.statFuBusy::FloatMisc                   0      0.00%     65.88% # attempts to use FU when none available (Count)
system.cpu1.statFuBusy::FloatSqrt                   0      0.00%     65.88% # attempts to use FU when none available (Count)
system.cpu1.statFuBusy::SimdAdd                     0      0.00%     65.88% # attempts to use FU when none available (Count)
system.cpu1.statFuBusy::SimdAddAcc                  0      0.00%     65.88% # attempts to use FU when none available (Count)
system.cpu1.statFuBusy::SimdAlu                   121      0.18%     66.07% # attempts to use FU when none available (Count)
system.cpu1.statFuBusy::SimdCmp                     0      0.00%     66.07% # attempts to use FU when none available (Count)
system.cpu1.statFuBusy::SimdCvt                   176      0.27%     66.33% # attempts to use FU when none available (Count)
system.cpu1.statFuBusy::SimdMisc                    0      0.00%     66.33% # attempts to use FU when none available (Count)
system.cpu1.statFuBusy::SimdMult                    0      0.00%     66.33% # attempts to use FU when none available (Count)
system.cpu1.statFuBusy::SimdMultAcc                 0      0.00%     66.33% # attempts to use FU when none available (Count)
system.cpu1.statFuBusy::SimdShift                 208      0.31%     66.64% # attempts to use FU when none available (Count)
system.cpu1.statFuBusy::SimdShiftAcc                0      0.00%     66.64% # attempts to use FU when none available (Count)
system.cpu1.statFuBusy::SimdDiv                     0      0.00%     66.64% # attempts to use FU when none available (Count)
system.cpu1.statFuBusy::SimdSqrt                    0      0.00%     66.64% # attempts to use FU when none available (Count)
system.cpu1.statFuBusy::SimdFloatAdd                0      0.00%     66.64% # attempts to use FU when none available (Count)
system.cpu1.statFuBusy::SimdFloatAlu                0      0.00%     66.64% # attempts to use FU when none available (Count)
system.cpu1.statFuBusy::SimdFloatCmp                0      0.00%     66.64% # attempts to use FU when none available (Count)
system.cpu1.statFuBusy::SimdFloatCvt                0      0.00%     66.64% # attempts to use FU when none available (Count)
system.cpu1.statFuBusy::SimdFloatDiv                0      0.00%     66.64% # attempts to use FU when none available (Count)
system.cpu1.statFuBusy::SimdFloatMisc               0      0.00%     66.64% # attempts to use FU when none available (Count)
system.cpu1.statFuBusy::SimdFloatMult               0      0.00%     66.64% # attempts to use FU when none available (Count)
system.cpu1.statFuBusy::SimdFloatMultAcc            0      0.00%     66.64% # attempts to use FU when none available (Count)
system.cpu1.statFuBusy::SimdFloatSqrt               0      0.00%     66.64% # attempts to use FU when none available (Count)
system.cpu1.statFuBusy::SimdReduceAdd               0      0.00%     66.64% # attempts to use FU when none available (Count)
system.cpu1.statFuBusy::SimdReduceAlu               0      0.00%     66.64% # attempts to use FU when none available (Count)
system.cpu1.statFuBusy::SimdReduceCmp               0      0.00%     66.64% # attempts to use FU when none available (Count)
system.cpu1.statFuBusy::SimdFloatReduceAdd            0      0.00%     66.64% # attempts to use FU when none available (Count)
system.cpu1.statFuBusy::SimdFloatReduceCmp            0      0.00%     66.64% # attempts to use FU when none available (Count)
system.cpu1.statFuBusy::SimdAes                     0      0.00%     66.64% # attempts to use FU when none available (Count)
system.cpu1.statFuBusy::SimdAesMix                  0      0.00%     66.64% # attempts to use FU when none available (Count)
system.cpu1.statFuBusy::SimdSha1Hash                0      0.00%     66.64% # attempts to use FU when none available (Count)
system.cpu1.statFuBusy::SimdSha1Hash2               0      0.00%     66.64% # attempts to use FU when none available (Count)
system.cpu1.statFuBusy::SimdSha256Hash              0      0.00%     66.64% # attempts to use FU when none available (Count)
system.cpu1.statFuBusy::SimdSha256Hash2             0      0.00%     66.64% # attempts to use FU when none available (Count)
system.cpu1.statFuBusy::SimdShaSigma2               0      0.00%     66.64% # attempts to use FU when none available (Count)
system.cpu1.statFuBusy::SimdShaSigma3               0      0.00%     66.64% # attempts to use FU when none available (Count)
system.cpu1.statFuBusy::SimdPredAlu                 0      0.00%     66.64% # attempts to use FU when none available (Count)
system.cpu1.statFuBusy::MemRead                 12457     18.76%     85.41% # attempts to use FU when none available (Count)
system.cpu1.statFuBusy::MemWrite                 7820     11.78%     97.19% # attempts to use FU when none available (Count)
system.cpu1.statFuBusy::FloatMemRead             1400      2.11%     99.30% # attempts to use FU when none available (Count)
system.cpu1.statFuBusy::FloatMemWrite             467      0.70%    100.00% # attempts to use FU when none available (Count)
system.cpu1.statFuBusy::IprAccess                   0      0.00%    100.00% # attempts to use FU when none available (Count)
system.cpu1.statFuBusy::InstPrefetch                0      0.00%    100.00% # attempts to use FU when none available (Count)
system.cpu1.statIssuedInstType_0::No_OpClass        43843      0.47%      0.47% # Number of instructions issued per FU type, per thread (Count)
system.cpu1.statIssuedInstType_0::IntAlu      8277439     88.20%     88.67% # Number of instructions issued per FU type, per thread (Count)
system.cpu1.statIssuedInstType_0::IntMult           38      0.00%     88.67% # Number of instructions issued per FU type, per thread (Count)
system.cpu1.statIssuedInstType_0::IntDiv        38633      0.41%     89.08% # Number of instructions issued per FU type, per thread (Count)
system.cpu1.statIssuedInstType_0::FloatAdd         4371      0.05%     89.13% # Number of instructions issued per FU type, per thread (Count)
system.cpu1.statIssuedInstType_0::FloatCmp            0      0.00%     89.13% # Number of instructions issued per FU type, per thread (Count)
system.cpu1.statIssuedInstType_0::FloatCvt         1714      0.02%     89.15% # Number of instructions issued per FU type, per thread (Count)
system.cpu1.statIssuedInstType_0::FloatMult            0      0.00%     89.15% # Number of instructions issued per FU type, per thread (Count)
system.cpu1.statIssuedInstType_0::FloatMultAcc            0      0.00%     89.15% # Number of instructions issued per FU type, per thread (Count)
system.cpu1.statIssuedInstType_0::FloatDiv            0      0.00%     89.15% # Number of instructions issued per FU type, per thread (Count)
system.cpu1.statIssuedInstType_0::FloatMisc            0      0.00%     89.15% # Number of instructions issued per FU type, per thread (Count)
system.cpu1.statIssuedInstType_0::FloatSqrt            0      0.00%     89.15% # Number of instructions issued per FU type, per thread (Count)
system.cpu1.statIssuedInstType_0::SimdAdd         8531      0.09%     89.24% # Number of instructions issued per FU type, per thread (Count)
system.cpu1.statIssuedInstType_0::SimdAddAcc            0      0.00%     89.24% # Number of instructions issued per FU type, per thread (Count)
system.cpu1.statIssuedInstType_0::SimdAlu        17265      0.18%     89.42% # Number of instructions issued per FU type, per thread (Count)
system.cpu1.statIssuedInstType_0::SimdCmp            0      0.00%     89.42% # Number of instructions issued per FU type, per thread (Count)
system.cpu1.statIssuedInstType_0::SimdCvt        18907      0.20%     89.62% # Number of instructions issued per FU type, per thread (Count)
system.cpu1.statIssuedInstType_0::SimdMisc         8994      0.10%     89.72% # Number of instructions issued per FU type, per thread (Count)
system.cpu1.statIssuedInstType_0::SimdMult            0      0.00%     89.72% # Number of instructions issued per FU type, per thread (Count)
system.cpu1.statIssuedInstType_0::SimdMultAcc            0      0.00%     89.72% # Number of instructions issued per FU type, per thread (Count)
system.cpu1.statIssuedInstType_0::SimdShift         2994      0.03%     89.75% # Number of instructions issued per FU type, per thread (Count)
system.cpu1.statIssuedInstType_0::SimdShiftAcc            0      0.00%     89.75% # Number of instructions issued per FU type, per thread (Count)
system.cpu1.statIssuedInstType_0::SimdDiv            0      0.00%     89.75% # Number of instructions issued per FU type, per thread (Count)
system.cpu1.statIssuedInstType_0::SimdSqrt            0      0.00%     89.75% # Number of instructions issued per FU type, per thread (Count)
system.cpu1.statIssuedInstType_0::SimdFloatAdd            0      0.00%     89.75% # Number of instructions issued per FU type, per thread (Count)
system.cpu1.statIssuedInstType_0::SimdFloatAlu            0      0.00%     89.75% # Number of instructions issued per FU type, per thread (Count)
system.cpu1.statIssuedInstType_0::SimdFloatCmp            0      0.00%     89.75% # Number of instructions issued per FU type, per thread (Count)
system.cpu1.statIssuedInstType_0::SimdFloatCvt            0      0.00%     89.75% # Number of instructions issued per FU type, per thread (Count)
system.cpu1.statIssuedInstType_0::SimdFloatDiv            0      0.00%     89.75% # Number of instructions issued per FU type, per thread (Count)
system.cpu1.statIssuedInstType_0::SimdFloatMisc            0      0.00%     89.75% # Number of instructions issued per FU type, per thread (Count)
system.cpu1.statIssuedInstType_0::SimdFloatMult            0      0.00%     89.75% # Number of instructions issued per FU type, per thread (Count)
system.cpu1.statIssuedInstType_0::SimdFloatMultAcc            0      0.00%     89.75% # Number of instructions issued per FU type, per thread (Count)
system.cpu1.statIssuedInstType_0::SimdFloatSqrt            0      0.00%     89.75% # Number of instructions issued per FU type, per thread (Count)
system.cpu1.statIssuedInstType_0::SimdReduceAdd            0      0.00%     89.75% # Number of instructions issued per FU type, per thread (Count)
system.cpu1.statIssuedInstType_0::SimdReduceAlu            0      0.00%     89.75% # Number of instructions issued per FU type, per thread (Count)
system.cpu1.statIssuedInstType_0::SimdReduceCmp            0      0.00%     89.75% # Number of instructions issued per FU type, per thread (Count)
system.cpu1.statIssuedInstType_0::SimdFloatReduceAdd            0      0.00%     89.75% # Number of instructions issued per FU type, per thread (Count)
system.cpu1.statIssuedInstType_0::SimdFloatReduceCmp            0      0.00%     89.75% # Number of instructions issued per FU type, per thread (Count)
system.cpu1.statIssuedInstType_0::SimdAes            0      0.00%     89.75% # Number of instructions issued per FU type, per thread (Count)
system.cpu1.statIssuedInstType_0::SimdAesMix            0      0.00%     89.75% # Number of instructions issued per FU type, per thread (Count)
system.cpu1.statIssuedInstType_0::SimdSha1Hash            0      0.00%     89.75% # Number of instructions issued per FU type, per thread (Count)
system.cpu1.statIssuedInstType_0::SimdSha1Hash2            0      0.00%     89.75% # Number of instructions issued per FU type, per thread (Count)
system.cpu1.statIssuedInstType_0::SimdSha256Hash            0      0.00%     89.75% # Number of instructions issued per FU type, per thread (Count)
system.cpu1.statIssuedInstType_0::SimdSha256Hash2            0      0.00%     89.75% # Number of instructions issued per FU type, per thread (Count)
system.cpu1.statIssuedInstType_0::SimdShaSigma2            0      0.00%     89.75% # Number of instructions issued per FU type, per thread (Count)
system.cpu1.statIssuedInstType_0::SimdShaSigma3            0      0.00%     89.75% # Number of instructions issued per FU type, per thread (Count)
system.cpu1.statIssuedInstType_0::SimdPredAlu            0      0.00%     89.75% # Number of instructions issued per FU type, per thread (Count)
system.cpu1.statIssuedInstType_0::MemRead       674679      7.19%     96.94% # Number of instructions issued per FU type, per thread (Count)
system.cpu1.statIssuedInstType_0::MemWrite       234709      2.50%     99.44% # Number of instructions issued per FU type, per thread (Count)
system.cpu1.statIssuedInstType_0::FloatMemRead        33954      0.36%     99.80% # Number of instructions issued per FU type, per thread (Count)
system.cpu1.statIssuedInstType_0::FloatMemWrite        18348      0.20%    100.00% # Number of instructions issued per FU type, per thread (Count)
system.cpu1.statIssuedInstType_0::IprAccess            0      0.00%    100.00% # Number of instructions issued per FU type, per thread (Count)
system.cpu1.statIssuedInstType_0::InstPrefetch            0      0.00%    100.00% # Number of instructions issued per FU type, per thread (Count)
system.cpu1.statIssuedInstType_0::total       9384419                       # Number of instructions issued per FU type, per thread (Count)
system.cpu1.issueRate                        0.844320                       # Inst issue rate ((Count/Cycle))
system.cpu1.fuBusy                              66387                       # FU busy when requested (Count)
system.cpu1.fuBusyRate                       0.007074                       # FU busy rate (busy events/executed inst) ((Count/Count))
system.cpu1.intInstQueueReads                28658486                       # Number of integer instruction queue reads (Count)
system.cpu1.intInstQueueWrites               10717004                       # Number of integer instruction queue writes (Count)
system.cpu1.intInstQueueWakeupAccesses        9207064                       # Number of integer instruction queue wakeup accesses (Count)
system.cpu1.fpInstQueueReads                   235130                       # Number of floating instruction queue reads (Count)
system.cpu1.fpInstQueueWrites                  179043                       # Number of floating instruction queue writes (Count)
system.cpu1.fpInstQueueWakeupAccesses          112606                       # Number of floating instruction queue wakeup accesses (Count)
system.cpu1.vecInstQueueReads                       0                       # Number of vector instruction queue reads (Count)
system.cpu1.vecInstQueueWrites                      0                       # Number of vector instruction queue writes (Count)
system.cpu1.vecInstQueueWakeupAccesses              0                       # Number of vector instruction queue wakeup accesses (Count)
system.cpu1.intAluAccesses                    9288358                       # Number of integer alu accesses (Count)
system.cpu1.fpAluAccesses                      118605                       # Number of floating point alu accesses (Count)
system.cpu1.vecAluAccesses                          0                       # Number of vector alu accesses (Count)
system.cpu1.numInsts                          9349901                       # Number of executed instructions (Count)
system.cpu1.numLoadInsts                       700499                       # Number of load instructions executed (Count)
system.cpu1.numSquashedInsts                    34518                       # Number of squashed instructions skipped in execute (Count)
system.cpu1.numSwp                                  0                       # Number of swp insts executed (Count)
system.cpu1.numNop                                  0                       # Number of nop insts executed (Count)
system.cpu1.numRefs                            951505                       # Number of memory reference insts executed (Count)
system.cpu1.numBranches                        645646                       # Number of branches executed (Count)
[...]
system.ruby.network.ext_out_link_utilization      4216270                       (Unspecified)
system.ruby.network.flit_network_latency | 80080585500                       |209843544500                       | 19615130000                       (Unspecified)
system.ruby.network.flit_queueing_latency |  2182393000                       |  2221836500                       |   148695000                       (Unspecified)
system.ruby.network.flits_injected       |      999703     23.71%     23.71% |     2919182     69.24%     92.95% |      297391      7.05%    100.00% (Unspecified)
system.ruby.network.flits_injected::total      4216276                       (Unspecified)
system.ruby.network.flits_received       |      999703     23.71%     23.71% |     2919177     69.24%     92.95% |      297390      7.05%    100.00% (Unspecified)
system.ruby.network.flits_received::total      4216270                       (Unspecified)
system.ruby.network.int_link_utilization     10453372                       (Unspecified)
system.ruby.network.packet_network_latency | 59595205500                       | 69338664500                       | 19615130000                       (Unspecified)
system.ruby.network.packet_queueing_latency |  1775573000                       |   576340500                       |   148695000                       (Unspecified)
system.ruby.network.packets_injected     |      815259     42.29%     42.29% |      815258     42.29%     84.57% |      297391     15.43%    100.00% (Unspecified)
system.ruby.network.packets_injected::total      1927908                       (Unspecified)
system.ruby.network.packets_received     |      815259     42.29%     42.29% |      815257     42.29%     84.57% |      297390     15.43%    100.00% (Unspecified)
system.ruby.network.packets_received::total      1927906                       (Unspecified)
system.ruby.network.routers00.Var_1                 0                       (Unspecified)
system.ruby.network.routers00.Var_2                 0                       (Unspecified)
system.ruby.network.routers00.Var_3                 0                       (Unspecified)
system.ruby.network.routers00.all_counts            0                       (Unspecified)
system.ruby.network.routers00.buffer_reads       667994                       (Unspecified)
system.ruby.network.routers00.buffer_writes       667994                       (Unspecified)
system.ruby.network.routers00.crossbar_activity       667994                       (Unspecified)
system.ruby.network.routers00.detour_counts            0                       (Unspecified)
system.ruby.network.routers00.regular_var            0                       (Unspecified)
system.ruby.network.routers00.risk_counts            0                       (Unspecified)
system.ruby.network.routers00.sw_input_arbiter_activity       672446                       (Unspecified)
system.ruby.network.routers00.sw_output_arbiter_activity       667994                       (Unspecified)
system.ruby.network.routers01.Var_1                 0                       (Unspecified)
system.ruby.network.routers01.Var_2                 0                       (Unspecified)
system.ruby.network.routers01.Var_3                 0                       (Unspecified)
system.ruby.network.routers01.all_counts            0                       (Unspecified)
system.ruby.network.routers01.buffer_reads       932817                       (Unspecified)
system.ruby.network.routers01.buffer_writes       932817                       (Unspecified)
system.ruby.network.routers01.crossbar_activity       932817                       (Unspecified)
system.ruby.network.routers01.detour_counts            0                       (Unspecified)
system.ruby.network.routers01.regular_var            0                       (Unspecified)
system.ruby.network.routers01.risk_counts            0                       (Unspecified)
system.ruby.network.routers01.sw_input_arbiter_activity       943285                       (Unspecified)
system.ruby.network.routers01.sw_output_arbiter_activity       932817                       (Unspecified)
system.ruby.network.routers02.Var_1                 0                       (Unspecified)
system.ruby.network.routers02.Var_2                 0                       (Unspecified)
system.ruby.network.routers02.Var_3                 0                       (Unspecified)
system.ruby.network.routers02.all_counts            0                       (Unspecified)
system.ruby.network.routers02.buffer_reads       934873                       (Unspecified)
system.ruby.network.routers02.buffer_writes       934873                       (Unspecified)
system.ruby.network.routers02.crossbar_activity       934873                       (Unspecified)
system.ruby.network.routers02.detour_counts            0                       (Unspecified)
system.ruby.network.routers02.regular_var            0                       (Unspecified)
system.ruby.network.routers02.risk_counts            0                       (Unspecified)
system.ruby.network.routers02.sw_input_arbiter_activity       945143                       (Unspecified)
system.ruby.network.routers02.sw_output_arbiter_activity       934873                       (Unspecified)
system.ruby.network.routers03.Var_1                 0                       (Unspecified)
system.ruby.network.routers03.Var_2                 0                       (Unspecified)
system.ruby.network.routers03.Var_3                 0                       (Unspecified)
system.ruby.network.routers03.all_counts            0                       (Unspecified)
system.ruby.network.routers03.buffer_reads       658266                       (Unspecified)
system.ruby.network.routers03.buffer_writes       658266                       (Unspecified)
system.ruby.network.routers03.crossbar_activity       658266                       (Unspecified)
system.ruby.network.routers03.detour_counts            0                       (Unspecified)
system.ruby.network.routers03.regular_var            0                       (Unspecified)
system.ruby.network.routers03.risk_counts            0                       (Unspecified)
system.ruby.network.routers03.sw_input_arbiter_activity       662792                       (Unspecified)
system.ruby.network.routers03.sw_output_arbiter_activity       658266                       (Unspecified)
system.ruby.network.routers04.Var_1                 0                       (Unspecified)
system.ruby.network.routers04.Var_2                 0                       (Unspecified)
system.ruby.network.routers04.Var_3                 0                       (Unspecified)
system.ruby.network.routers04.all_counts            0                       (Unspecified)
system.ruby.network.routers04.buffer_reads       913802                       (Unspecified)
system.ruby.network.routers04.buffer_writes       913802                       (Unspecified)
system.ruby.network.routers04.crossbar_activity       913802                       (Unspecified)
system.ruby.network.routers04.detour_counts            0                       (Unspecified)
system.ruby.network.routers04.regular_var            0                       (Unspecified)
system.ruby.network.routers04.risk_counts            0                       (Unspecified)
system.ruby.network.routers04.sw_input_arbiter_activity       923101                       (Unspecified)
system.ruby.network.routers04.sw_output_arbiter_activity       913802                       (Unspecified)
system.ruby.network.routers05.Var_1                 0                       (Unspecified)
system.ruby.network.routers05.Var_2                 0                       (Unspecified)
system.ruby.network.routers05.Var_3                 0                       (Unspecified)
system.ruby.network.routers05.all_counts            0                       (Unspecified)
system.ruby.network.routers05.buffer_reads      1178230                       (Unspecified)
system.ruby.network.routers05.buffer_writes      1178230                       (Unspecified)
system.ruby.network.routers05.crossbar_activity      1178230                       (Unspecified)
system.ruby.network.routers05.detour_counts            0                       (Unspecified)
system.ruby.network.routers05.regular_var            0                       (Unspecified)
system.ruby.network.routers05.risk_counts            0                       (Unspecified)
system.ruby.network.routers05.sw_input_arbiter_activity      1193958                       (Unspecified)
system.ruby.network.routers05.sw_output_arbiter_activity      1178230                       (Unspecified)
system.ruby.network.routers06.Var_1                 0                       (Unspecified)
system.ruby.network.routers06.Var_2                 0                       (Unspecified)
system.ruby.network.routers06.Var_3                 0                       (Unspecified)
system.ruby.network.routers06.all_counts            0                       (Unspecified)
system.ruby.network.routers06.buffer_reads      1177218                       (Unspecified)
system.ruby.network.routers06.buffer_writes      1177218                       (Unspecified)
system.ruby.network.routers06.crossbar_activity      1177218                       (Unspecified)
system.ruby.network.routers06.detour_counts            0                       (Unspecified)
system.ruby.network.routers06.regular_var            0                       (Unspecified)
system.ruby.network.routers06.risk_counts            0                       (Unspecified)
system.ruby.network.routers06.sw_input_arbiter_activity      1193112                       (Unspecified)
system.ruby.network.routers06.sw_output_arbiter_activity      1177218                       (Unspecified)
system.ruby.network.routers07.Var_1                 0                       (Unspecified)
system.ruby.network.routers07.Var_2                 0                       (Unspecified)
system.ruby.network.routers07.Var_3                 0                       (Unspecified)
system.ruby.network.routers07.all_counts            0                       (Unspecified)
system.ruby.network.routers07.buffer_reads       900616                       (Unspecified)
system.ruby.network.routers07.buffer_writes       900616                       (Unspecified)
system.ruby.network.routers07.crossbar_activity       900616                       (Unspecified)
system.ruby.network.routers07.detour_counts            0                       (Unspecified)
system.ruby.network.routers07.regular_var            0                       (Unspecified)
system.ruby.network.routers07.risk_counts            0                       (Unspecified)
system.ruby.network.routers07.sw_input_arbiter_activity       910110                       (Unspecified)
system.ruby.network.routers07.sw_output_arbiter_activity       900616                       (Unspecified)
system.ruby.network.routers08.Var_1                 0                       (Unspecified)
system.ruby.network.routers08.Var_2                 0                       (Unspecified)
system.ruby.network.routers08.Var_3                 0                       (Unspecified)
system.ruby.network.routers08.all_counts            0                       (Unspecified)
system.ruby.network.routers08.buffer_reads       910821                       (Unspecified)
system.ruby.network.routers08.buffer_writes       910821                       (Unspecified)
system.ruby.network.routers08.crossbar_activity       910821                       (Unspecified)
system.ruby.network.routers08.detour_counts            0                       (Unspecified)
system.ruby.network.routers08.regular_var            0                       (Unspecified)
system.ruby.network.routers08.risk_counts            0                       (Unspecified)
system.ruby.network.routers08.sw_input_arbiter_activity       920272                       (Unspecified)
system.ruby.network.routers08.sw_output_arbiter_activity       910821                       (Unspecified)
system.ruby.network.routers09.Var_1                 0                       (Unspecified)
system.ruby.network.routers09.Var_2                 0                       (Unspecified)
system.ruby.network.routers09.Var_3                 0                       (Unspecified)
system.ruby.network.routers09.all_counts            0                       (Unspecified)
system.ruby.network.routers09.buffer_reads      1179288                       (Unspecified)
system.ruby.network.routers09.buffer_writes      1179288                       (Unspecified)
system.ruby.network.routers09.crossbar_activity      1179288                       (Unspecified)
system.ruby.network.routers09.detour_counts            0                       (Unspecified)
system.ruby.network.routers09.regular_var            0                       (Unspecified)
system.ruby.network.routers09.risk_counts            0                       (Unspecified)
system.ruby.network.routers09.sw_input_arbiter_activity      1194547                       (Unspecified)
system.ruby.network.routers09.sw_output_arbiter_activity      1179288                       (Unspecified)
system.ruby.network.routers10.Var_1                 0                       (Unspecified)
system.ruby.network.routers10.Var_2                 0                       (Unspecified)
system.ruby.network.routers10.Var_3                 0                       (Unspecified)
system.ruby.network.routers10.all_counts            0                       (Unspecified)
system.ruby.network.routers10.buffer_reads      1176056                       (Unspecified)
system.ruby.network.routers10.buffer_writes      1176056                       (Unspecified)
system.ruby.network.routers10.crossbar_activity      1176056                       (Unspecified)
system.ruby.network.routers10.detour_counts            0                       (Unspecified)
system.ruby.network.routers10.regular_var            0                       (Unspecified)
system.ruby.network.routers10.risk_counts            0                       (Unspecified)
system.ruby.network.routers10.sw_input_arbiter_activity      1191024                       (Unspecified)
system.ruby.network.routers10.sw_output_arbiter_activity      1176056                       (Unspecified)
system.ruby.network.routers11.Var_1                 0                       (Unspecified)
system.ruby.network.routers11.Var_2                 0                       (Unspecified)
system.ruby.network.routers11.Var_3                 0                       (Unspecified)
system.ruby.network.routers11.all_counts            0                       (Unspecified)
system.ruby.network.routers11.buffer_reads       896940                       (Unspecified)
system.ruby.network.routers11.buffer_writes       896940                       (Unspecified)
system.ruby.network.routers11.crossbar_activity       896940                       (Unspecified)
system.ruby.network.routers11.detour_counts            0                       (Unspecified)
system.ruby.network.routers11.regular_var            0                       (Unspecified)
system.ruby.network.routers11.risk_counts            0                       (Unspecified)
system.ruby.network.routers11.sw_input_arbiter_activity       905970                       (Unspecified)
system.ruby.network.routers11.sw_output_arbiter_activity       896940                       (Unspecified)
system.ruby.network.routers12.Var_1                 0                       (Unspecified)
system.ruby.network.routers12.Var_2                 0                       (Unspecified)
system.ruby.network.routers12.Var_3                 0                       (Unspecified)
system.ruby.network.routers12.all_counts            0                       (Unspecified)
system.ruby.network.routers12.buffer_reads       655759                       (Unspecified)
system.ruby.network.routers12.buffer_writes       655759                       (Unspecified)
system.ruby.network.routers12.crossbar_activity       655759                       (Unspecified)
system.ruby.network.routers12.detour_counts            0                       (Unspecified)
system.ruby.network.routers12.regular_var            0                       (Unspecified)
system.ruby.network.routers12.risk_counts            0                       (Unspecified)
system.ruby.network.routers12.sw_input_arbiter_activity       659896                       (Unspecified)
system.ruby.network.routers12.sw_output_arbiter_activity       655759                       (Unspecified)
system.ruby.network.routers13.Var_1                 0                       (Unspecified)
system.ruby.network.routers13.Var_2                 0                       (Unspecified)
system.ruby.network.routers13.Var_3                 0                       (Unspecified)
system.ruby.network.routers13.all_counts            0                       (Unspecified)
system.ruby.network.routers13.buffer_reads       921778                       (Unspecified)
system.ruby.network.routers13.buffer_writes       921778                       (Unspecified)
system.ruby.network.routers13.crossbar_activity       921778                       (Unspecified)
system.ruby.network.routers13.detour_counts            0                       (Unspecified)
system.ruby.network.routers13.regular_var            0                       (Unspecified)
system.ruby.network.routers13.risk_counts            0                       (Unspecified)
system.ruby.network.routers13.sw_input_arbiter_activity       931053                       (Unspecified)
system.ruby.network.routers13.sw_output_arbiter_activity       921778                       (Unspecified)
system.ruby.network.routers14.Var_1                 0                       (Unspecified)
system.ruby.network.routers14.Var_2                 0                       (Unspecified)
system.ruby.network.routers14.Var_3                 0                       (Unspecified)
system.ruby.network.routers14.all_counts            0                       (Unspecified)
system.ruby.network.routers14.buffer_reads       915955                       (Unspecified)
system.ruby.network.routers14.buffer_writes       915955                       (Unspecified)
system.ruby.network.routers14.crossbar_activity       915955                       (Unspecified)
system.ruby.network.routers14.detour_counts            0                       (Unspecified)
system.ruby.network.routers14.regular_var            0                       (Unspecified)
system.ruby.network.routers14.risk_counts            0                       (Unspecified)
system.ruby.network.routers14.sw_input_arbiter_activity       925476                       (Unspecified)
system.ruby.network.routers14.sw_output_arbiter_activity       915955                       (Unspecified)
system.ruby.network.routers15.Var_1                 0                       (Unspecified)
system.ruby.network.routers15.Var_2                 0                       (Unspecified)
system.ruby.network.routers15.Var_3                 0                       (Unspecified)
system.ruby.network.routers15.all_counts            0                       (Unspecified)
system.ruby.network.routers15.buffer_reads       649229                       (Unspecified)
system.ruby.network.routers15.buffer_writes       649229                       (Unspecified)
system.ruby.network.routers15.crossbar_activity       649229                       (Unspecified)
system.ruby.network.routers15.detour_counts            0                       (Unspecified)
system.ruby.network.routers15.regular_var            0                       (Unspecified)
system.ruby.network.routers15.risk_counts            0                       (Unspecified)
system.ruby.network.routers15.sw_input_arbiter_activity       653357                       (Unspecified)
system.ruby.network.routers15.sw_output_arbiter_activity       649229                       (Unspecified)

---------- End Simulation Statistics   ----------
