
---------- Begin Simulation Statistics ----------
simSeconds                                   0.007034                       # Number of seconds simulated (Second)
simTicks                                   7034486500                       # Number of ticks simulated (Tick)
finalTick                                  7034486500                       # Number of ticks from beginning of simulation (restored from checkpoints and never reset) (Tick)
simFreq                                  1000000000000                       # The number of ticks per simulated second ((Tick/Second))
hostSeconds                                   1441.75                       # Real time elapsed on the host (Second)
hostTickRate                                  4879117                       # The number of ticks simulated per host second (ticks/s) ((Tick/Second))
hostMemory                                   11405984                       # Number of bytes of host memory used (Byte)
simInsts                                    150202342                       # Number of instructions simulated (Count)
simOps                                      237880495                       # Number of ops (including micro ops) simulated (Count)
hostInstRate                                   104180                       # Simulator instruction rate (inst/s) ((Count/Second))
hostOpRate                                     164994                       # Simulator op (including micro ops) rate (op/s) ((Count/Second))
system.clk_domain.clock                          1000                       # Clock period in ticks (Tick)
system.cpu0.numCycles                        14068974                       # Number of cpu cycles simulated (Cycle)
system.cpu0.numWorkItemsStarted                     0                       # Number of work items this cpu started (Count)
system.cpu0.numWorkItemsCompleted                   0                       # Number of work items this cpu completed (Count)
system.cpu0.instsAdded                       15704193                       # Number of instructions added to the IQ (excludes non-spec) (Count)
system.cpu0.nonSpecInstsAdded                     881                       # Number of non-speculative instructions added to the IQ (Count)
system.cpu0.instsIssued                      15093793                       # Number of instructions issued (Count)
system.cpu0.squashedInstsIssued                  2800                       # Number of squashed instructions issued (Count)
system.cpu0.squashedInstsExamined             1507599                       # Number of squashed instructions iterated over during squash; mainly for profiling (Count)
system.cpu0.squashedOperandsExamined          3158479                       # Number of squashed operands that are examined and possibly removed from graph (Count)
system.cpu0.squashedNonSpecRemoved                148                       # Number of squashed non-spec instructions that were removed (Count)
system.cpu0.numIssuedDist::samples           12937505                       # Number of insts issued each cycle (Count)
system.cpu0.numIssuedDist::mean              1.166670                       # Number of insts issued each cycle (Count)
system.cpu0.numIssuedDist::stdev             1.744290                       # Number of insts issued each cycle (Count)
system.cpu0.numIssuedDist::underflows               0      0.00%      0.00% # Number of insts issued each cycle (Count)
system.cpu0.numIssuedDist::0                  8099987     62.61%     62.61% # Number of insts issued each cycle (Count)
system.cpu0.numIssuedDist::1                   469474      3.63%     66.24% # Number of insts issued each cycle (Count)
system.cpu0.numIssuedDist::2                  1321165     10.21%     76.45% # Number of insts issued each cycle (Count)
system.cpu0.numIssuedDist::3                  1453668     11.24%     87.69% # Number of insts issued each cycle (Count)
system.cpu0.numIssuedDist::4                   835624      6.46%     94.14% # Number of insts issued each cycle (Count)
system.cpu0.numIssuedDist::5                   438802      3.39%     97.54% # Number of insts issued each cycle (Count)
system.cpu0.numIssuedDist::6                   190009      1.47%     99.00% # Number of insts issued each cycle (Count)
system.cpu0.numIssuedDist::7                    85783      0.66%     99.67% # Number of insts issued each cycle (Count)
system.cpu0.numIssuedDist::8                    42993      0.33%    100.00% # Number of insts issued each cycle (Count)
system.cpu0.numIssuedDist::overflows                0      0.00%    100.00% # Number of insts issued each cycle (Count)
system.cpu0.numIssuedDist::min_value                0                       # Number of insts issued each cycle (Count)
system.cpu0.numIssuedDist::max_value                8                       # Number of insts issued each cycle (Count)
system.cpu0.numIssuedDist::total             12937505                       # Number of insts issued each cycle (Count)
system.cpu0.statFuBusy::No_OpClass                  0      0.00%      0.00% # attempts to use FU when none available (Count)
system.cpu0.statFuBusy::IntAlu                  57055     72.12%     72.12% # attempts to use FU when none available (Count)
system.cpu0.statFuBusy::IntMult                     0      0.00%     72.12% # attempts to use FU when none available (Count)
system.cpu0.statFuBusy::IntDiv                      0      0.00%     72.12% # attempts to use FU when none available (Count)
system.cpu0.statFuBusy::FloatAdd                    0      0.00%     72.12% # attempts to use FU when none available (Count)
system.cpu0.statFuBusy::FloatCmp                    0      0.00%     72.12% # attempts to use FU when none available (Count)
system.cpu0.statFuBusy::FloatCvt                    1      0.00%     72.13% # attempts to use FU when none available (Count)
system.cpu0.statFuBusy::FloatMult                   0      0.00%     72.13% # attempts to use FU when none available (Count)
system.cpu0.statFuBusy::FloatMultAcc                0      0.00%     72.13% # attempts to use FU when none available (Count)
system.cpu0.statFuBusy::FloatDiv                    0      0.00%     72.13% # attempts to use FU when none available (Count)
system.cpu0.statFuBusy::FloatMisc                   0      0.00%     72.13% # attempts to use FU when none available (Count)
system.cpu0.statFuBusy::FloatSqrt                   0      0.00%     72.13% # attempts to use FU when none available (Count)
system.cpu0.statFuBusy::SimdAdd                     0      0.00%     72.13% # attempts to use FU when none available (Count)
system.cpu0.statFuBusy::SimdAddAcc                  0      0.00%     72.13% # attempts to use FU when none available (Count)
system.cpu0.statFuBusy::SimdAlu                   123      0.16%     72.28% # attempts to use FU when none available (Count)
system.cpu0.statFuBusy::SimdCmp                     0      0.00%     72.28% # attempts to use FU when none available (Count)
system.cpu0.statFuBusy::SimdCvt                   168      0.21%     72.49% # attempts to use FU when none available (Count)
system.cpu0.statFuBusy::SimdMisc                    0      0.00%     72.49% # attempts to use FU when none available (Count)
system.cpu0.statFuBusy::SimdMult                    0      0.00%     72.49% # attempts to use FU when none available (Count)
system.cpu0.statFuBusy::SimdMultAcc                 0      0.00%     72.49% # attempts to use FU when none available (Count)
system.cpu0.statFuBusy::SimdShift                 209      0.26%     72.76% # attempts to use FU when none available (Count)
system.cpu0.statFuBusy::SimdShiftAcc                0      0.00%     72.76% # attempts to use FU when none available (Count)
system.cpu0.statFuBusy::SimdDiv                     0      0.00%     72.76% # attempts to use FU when none available (Count)
system.cpu0.statFuBusy::SimdSqrt                    0      0.00%     72.76% # attempts to use FU when none available (Count)
system.cpu0.statFuBusy::SimdFloatAdd                0      0.00%     72.76% # attempts to use FU when none available (Count)
system.cpu0.statFuBusy::SimdFloatAlu                0      0.00%     72.76% # attempts to use FU when none available (Count)
system.cpu0.statFuBusy::SimdFloatCmp                0      0.00%     72.76% # attempts to use FU when none available (Count)
system.cpu0.statFuBusy::SimdFloatCvt                0      0.00%     72.76% # attempts to use FU when none available (Count)
system.cpu0.statFuBusy::SimdFloatDiv                0      0.00%     72.76% # attempts to use FU when none available (Count)
system.cpu0.statFuBusy::SimdFloatMisc               0      0.00%     72.76% # attempts to use FU when none available (Count)
system.cpu0.statFuBusy::SimdFloatMult               0      0.00%     72.76% # attempts to use FU when none available (Count)
system.cpu0.statFuBusy::SimdFloatMultAcc            0      0.00%     72.76% # attempts to use FU when none available (Count)
system.cpu0.statFuBusy::SimdFloatSqrt               0      0.00%     72.76% # attempts to use FU when none available (Count)
system.cpu0.statFuBusy::SimdReduceAdd               0      0.00%     72.76% # attempts to use FU when none available (Count)
system.cpu0.statFuBusy::SimdReduceAlu               0      0.00%     72.76% # attempts to use FU when none available (Count)
system.cpu0.statFuBusy::SimdReduceCmp               0      0.00%     72.76% # attempts to use FU when none available (Count)
system.cpu0.statFuBusy::SimdFloatReduceAdd            0      0.00%     72.76% # attempts to use FU when none available (Count)
system.cpu0.statFuBusy::SimdFloatReduceCmp            0      0.00%     72.76% # attempts to use FU when none available (Count)
system.cpu0.statFuBusy::SimdAes                     0      0.00%     72.76% # attempts to use FU when none available (Count)
system.cpu0.statFuBusy::SimdAesMix                  0      0.00%     72.76% # attempts to use FU when none available (Count)
system.cpu0.statFuBusy::SimdSha1Hash                0      0.00%     72.76% # attempts to use FU when none available (Count)
system.cpu0.statFuBusy::SimdSha1Hash2               0      0.00%     72.76% # attempts to use FU when none available (Count)
system.cpu0.statFuBusy::SimdSha256Hash              0      0.00%     72.76% # attempts to use FU when none available (Count)
system.cpu0.statFuBusy::SimdSha256Hash2             0      0.00%     72.76% # attempts to use FU when none available (Count)
system.cpu0.statFuBusy::SimdShaSigma2               0      0.00%     72.76% # attempts to use FU when none available (Count)
system.cpu0.statFuBusy::SimdShaSigma3               0      0.00%     72.76% # attempts to use FU when none available (Count)
system.cpu0.statFuBusy::SimdPredAlu                 0      0.00%     72.76% # attempts to use FU when none available (Count)
system.cpu0.statFuBusy::MemRead                 12071     15.26%     88.02% # attempts to use FU when none available (Count)
system.cpu0.statFuBusy::MemWrite                 7673      9.70%     97.72% # attempts to use FU when none available (Count)
system.cpu0.statFuBusy::FloatMemRead             1347      1.70%     99.42% # attempts to use FU when none available (Count)
system.cpu0.statFuBusy::FloatMemWrite             460      0.58%    100.00% # attempts to use FU when none available (Count)
system.cpu0.statFuBusy::IprAccess                   0      0.00%    100.00% # attempts to use FU when none available (Count)
system.cpu0.statFuBusy::InstPrefetch                0      0.00%    100.00% # attempts to use FU when none available (Count)
system.cpu0.statIssuedInstType_0::No_OpClass        74601      0.49%      0.49% # Number of instructions issued per FU type, per thread (Count)
system.cpu0.statIssuedInstType_0::IntAlu     13795138     91.40%     91.89% # Number of instructions issued per FU type, per thread (Count)
system.cpu0.statIssuedInstType_0::IntMult           38      0.00%     91.89% # Number of instructions issued per FU type, per thread (Count)
system.cpu0.statIssuedInstType_0::IntDiv        38434      0.25%     92.15% # Number of instructions issued per FU type, per thread (Count)
system.cpu0.statIssuedInstType_0::FloatAdd         4221      0.03%     92.17% # Number of instructions issued per FU type, per thread (Count)
system.cpu0.statIssuedInstType_0::FloatCmp            0      0.00%     92.17% # Number of instructions issued per FU type, per thread (Count)
system.cpu0.statIssuedInstType_0::FloatCvt         1426      0.01%     92.18% # Number of instructions issued per FU type, per thread (Count)
system.cpu0.statIssuedInstType_0::FloatMult            0      0.00%     92.18% # Number of instructions issued per FU type, per thread (Count)
system.cpu0.statIssuedInstType_0::FloatMultAcc            0      0.00%     92.18% # Number of instructions issued per FU type, per thread (Count)
system.cpu0.statIssuedInstType_0::FloatDiv            0      0.00%     92.18% # Number of instructions issued per FU type, per thread (Count)
system.cpu0.statIssuedInstType_0::FloatMisc            0      0.00%     92.18% # Number of instructions issued per FU type, per thread (Count)
system.cpu0.statIssuedInstType_0::FloatSqrt            0      0.00%     92.18% # Number of instructions issued per FU type, per thread (Count)
system.cpu0.statIssuedInstType_0::SimdAdd         8424      0.06%     92.24% # Number of instructions issued per FU type, per thread (Count)
system.cpu0.statIssuedInstType_0::SimdAddAcc            0      0.00%     92.24% # Number of instructions issued per FU type, per thread (Count)
system.cpu0.statIssuedInstType_0::SimdAlu        17072      0.11%     92.35% # Number of instructions issued per FU type, per thread (Count)
system.cpu0.statIssuedInstType_0::SimdCmp            0      0.00%     92.35% # Number of instructions issued per FU type, per thread (Count)
system.cpu0.statIssuedInstType_0::SimdCvt        18662      0.12%     92.48% # Number of instructions issued per FU type, per thread (Count)
system.cpu0.statIssuedInstType_0::SimdMisc         8835      0.06%     92.53% # Number of instructions issued per FU type, per thread (Count)
system.cpu0.statIssuedInstType_0::SimdMult            0      0.00%     92.53% # Number of instructions issued per FU type, per thread (Count)
system.cpu0.statIssuedInstType_0::SimdMultAcc            0      0.00%     92.53% # Number of instructions issued per FU type, per thread (Count)
system.cpu0.statIssuedInstType_0::SimdShift         2920      0.02%     92.55% # Number of instructions issued per FU type, per thread (Count)
system.cpu0.statIssuedInstType_0::SimdShiftAcc            0      0.00%     92.55% # Number of instructions issued per FU type, per thread (Count)
system.cpu0.statIssuedInstType_0::SimdDiv            0      0.00%     92.55% # Number of instructions issued per FU type, per thread (Count)
system.cpu0.statIssuedInstType_0::SimdSqrt            0      0.00%     92.55% # Number of instructions issued per FU type, per thread (Count)
system.cpu0.statIssuedInstType_0::SimdFloatAdd            0      0.00%     92.55% # Number of instructions issued per FU type, per thread (Count)
system.cpu0.statIssuedInstType_0::SimdFloatAlu            0      0.00%     92.55% # Number of instructions issued per FU type, per thread (Count)
system.cpu0.statIssuedInstType_0::SimdFloatCmp            0      0.00%     92.55% # Number of instructions issued per FU type, per thread (Count)
system.cpu0.statIssuedInstType_0::SimdFloatCvt            0      0.00%     92.55% # Number of instructions issued per FU type, per thread (Count)
system.cpu0.statIssuedInstType_0::SimdFloatDiv            0      0.00%     92.55% # Number of instructions issued per FU type, per thread (Count)
system.cpu0.statIssuedInstType_0::SimdFloatMisc            0      0.00%     92.55% # Number of instructions issued per FU type, per thread (Count)
system.cpu0.statIssuedInstType_0::SimdFloatMult            0      0.00%     92.55% # Number of instructions issued per FU type, per thread (Count)
system.cpu0.statIssuedInstType_0::SimdFloatMultAcc            0      0.00%     92.55% # Number of instructions issued per FU type, per thread (Count)
system.cpu0.statIssuedInstType_0::SimdFloatSqrt            0      0.00%     92.55% # Number of instructions issued per FU type, per thread (Count)
system.cpu0.statIssuedInstType_0::SimdReduceAdd            0      0.00%     92.55% # Number of instructions issued per FU type, per thread (Count)
system.cpu0.statIssuedInstType_0::SimdReduceAlu            0      0.00%     92.55% # Number of instructions issued per FU type, per thread (Count)
system.cpu0.statIssuedInstType_0::SimdReduceCmp            0      0.00%     92.55% # Number of instructions issued per FU type, per thread (Count)
system.cpu0.statIssuedInstType_0::SimdFloatReduceAdd            0      0.00%     92.55% # Number of instructions issued per FU type, per thread (Count)
system.cpu0.statIssuedInstType_0::SimdFloatReduceCmp            0      0.00%     92.55% # Number of instructions issued per FU type, per thread (Count)
system.cpu0.statIssuedInstType_0::SimdAes            0      0.00%     92.55% # Number of instructions issued per FU type, per thread (Count)
system.cpu0.statIssuedInstType_0::SimdAesMix            0      0.00%     92.55% # Number of instructions issued per FU type, per thread (Count)
system.cpu0.statIssuedInstType_0::SimdSha1Hash            0      0.00%     92.55% # Number of instructions issued per FU type, per thread (Count)
system.cpu0.statIssuedInstType_0::SimdSha1Hash2            0      0.00%     92.55% # Number of instructions issued per FU type, per thread (Count)
system.cpu0.statIssuedInstType_0::SimdSha256Hash            0      0.00%     92.55% # Number of instructions issued per FU type, per thread (Count)
system.cpu0.statIssuedInstType_0::SimdSha256Hash2            0      0.00%     92.55% # Number of instructions issued per FU type, per thread (Count)
system.cpu0.statIssuedInstType_0::SimdShaSigma2            0      0.00%     92.55% # Number of instructions issued per FU type, per thread (Count)
system.cpu0.statIssuedInstType_0::SimdShaSigma3            0      0.00%     92.55% # Number of instructions issued per FU type, per thread (Count)
system.cpu0.statIssuedInstType_0::SimdPredAlu            0      0.00%     92.55% # Number of instructions issued per FU type, per thread (Count)
system.cpu0.statIssuedInstType_0::MemRead       772479      5.12%     97.67% # Number of instructions issued per FU type, per thread (Count)
system.cpu0.statIssuedInstType_0::MemWrite       299471      1.98%     99.66% # Number of instructions issued per FU type, per thread (Count)
system.cpu0.statIssuedInstType_0::FloatMemRead        33804      0.22%     99.88% # Number of instructions issued per FU type, per thread (Count)
system.cpu0.statIssuedInstType_0::FloatMemWrite        18268      0.12%    100.00% # Number of instructions issued per FU type, per thread (Count)
system.cpu0.statIssuedInstType_0::IprAccess            0      0.00%    100.00% # Number of instructions issued per FU type, per thread (Count)
system.cpu0.statIssuedInstType_0::InstPrefetch            0      0.00%    100.00% # Number of instructions issued per FU type, per thread (Count)
system.cpu0.statIssuedInstType_0::total      15093793                       # Number of instructions issued per FU type, per thread (Count)
system.cpu0.issueRate                        1.072842                       # Inst issue rate ((Count/Cycle))
system.cpu0.fuBusy                              79107                       # FU busy when requested (Count)
system.cpu0.fuBusyRate                       0.005241                       # FU busy rate (busy events/executed inst) ((Count/Count))
system.cpu0.intInstQueueReads                42974874                       # Number of integer instruction queue reads (Count)
system.cpu0.intInstQueueWrites               17044593                       # Number of integer instruction queue writes (Count)
system.cpu0.intInstQueueWakeupAccesses       14891257                       # Number of integer instruction queue wakeup accesses (Count)
system.cpu0.fpInstQueueReads                   232122                       # Number of floating instruction queue reads (Count)
system.cpu0.fpInstQueueWrites                  176502                       # Number of floating instruction queue writes (Count)
system.cpu0.fpInstQueueWakeupAccesses          111016                       # Number of floating instruction queue wakeup accesses (Count)
system.cpu0.vecInstQueueReads                       0                       # Number of vector instruction queue reads (Count)
system.cpu0.vecInstQueueWrites                      0                       # Number of vector instruction queue writes (Count)
system.cpu0.vecInstQueueWakeupAccesses              0                       # Number of vector instruction queue wakeup accesses (Count)
system.cpu0.intAluAccesses                   14981227                       # Number of integer alu accesses (Count)
system.cpu0.fpAluAccesses                      117072                       # Number of floating point alu accesses (Count)
system.cpu0.vecAluAccesses                          0                       # Number of vector alu accesses (Count)
system.cpu0.numInsts                         15037817                       # Number of executed instructions (Count)
system.cpu0.numLoadInsts                       795123                       # Number of load instructions executed (Count)
system.cpu0.numSquashedInsts                    55974                       # Number of squashed instructions skipped in execute (Count)
system.cpu0.numSwp                                  0                       # Number of swp insts executed (Count)
system.cpu0.numNop                                  0                       # Number of nop insts executed (Count)
system.cpu0.numRefs                           1108594                       # Number of memory reference insts executed (Count)
system.cpu0.numBranches                        934291                       # Number of branches executed (Count)
system.cpu0.numStoreInsts                      313471                       # Number of stores executed (Count)
system.cpu0.numRate                          1.068864                       # Inst execution rate ((Count/Cycle))
system.cpu0.timesIdled                           2224                       # Number of times that the entire CPU went into an idle state and unscheduled itself (Count)
system.cpu0.idleCycles                        1131469                       # Total number of cycles that the CPU has spent unscheduled due to idling (Cycle)
system.cpu0.committedInsts                    8951894                       # Number of Instructions Simulated (Count)
system.cpu0.committedOps                     14197385                       # Number of Ops (including micro ops) Simulated (Count)
system.cpu0.cpi                              1.571620                       # CPI: Cycles Per Instruction ((Cycle/Count))
system.cpu0.totalCpi                         1.571620                       # CPI: Total CPI of All Threads ((Cycle/Count))
system.cpu0.ipc                              0.636286                       # IPC: Instructions Per Cycle ((Count/Cycle))
system.cpu0.totalIpc                         0.636286                       # IPC: Total IPC of All Threads ((Count/Cycle))
system.cpu0.intRegfileReads                  26400427                       # Number of integer regfile reads (Count)
system.cpu0.intRegfileWrites                 12336999                       # Number of integer regfile writes (Count)
system.cpu0.fpRegfileReads                     151027                       # Number of floating regfile reads (Count)
system.cpu0.fpRegfileWrites                     83817                       # Number of floating regfile writes (Count)
system.cpu0.ccRegfileReads                   17050011                       # number of cc regfile reads (Count)
system.cpu0.ccRegfileWrites                   8221288                       # number of cc regfile writes (Count)
system.cpu0.miscRegfileReads                  3023259                       # number of misc regfile reads (Count)
system.cpu0.miscRegfileWrites                     729                       # number of misc regfile writes (Count)
system.cpu0.MemDepUnit__0.insertedLoads        899570                       # Number of loads inserted to the mem dependence unit. (Count)
system.cpu0.MemDepUnit__0.insertedStores       389205                       # Number of stores inserted to the mem dependence unit. (Count)
system.cpu0.MemDepUnit__0.conflictingLoads       107074                       # Number of conflicting loads. (Count)
system.cpu0.MemDepUnit__0.conflictingStores        91281                       # Number of conflicting stores. (Count)
system.cpu0.MemDepUnit__1.insertedLoads             0                       # Number of loads inserted to the mem dependence unit. (Count)
system.cpu0.MemDepUnit__1.insertedStores            0                       # Number of stores inserted to the mem dependence unit. (Count)
system.cpu0.MemDepUnit__1.conflictingLoads            0                       # Number of conflicting loads. (Count)
system.cpu0.MemDepUnit__1.conflictingStores            0                       # Number of conflicting stores. (Count)
system.cpu0.MemDepUnit__2.insertedLoads             0                       # Number of loads inserted to the mem dependence unit. (Count)
system.cpu0.MemDepUnit__2.insertedStores            0                       # Number of stores inserted to the mem dependence unit. (Count)
system.cpu0.MemDepUnit__2.conflictingLoads            0                       # Number of conflicting loads. (Count)
system.cpu0.MemDepUnit__2.conflictingStores            0                       # Number of conflicting stores. (Count)
system.cpu0.MemDepUnit__3.insertedLoads             0                       # Number of loads inserted to the mem dependence unit. (Count)
system.cpu0.MemDepUnit__3.insertedStores            0                       # Number of stores inserted to the mem dependence unit. (Count)
system.cpu0.MemDepUnit__3.conflictingLoads            0                       # Number of conflicting loads. (Count)
system.cpu0.MemDepUnit__3.conflictingStores            0                       # Number of conflicting stores. (Count)
system.cpu0.branchPred.lookups                1088439                       # Number of BP lookups (Count)
system.cpu0.branchPred.condPredicted          1022839                       # Number of conditional branches predicted (Count)
system.cpu0.branchPred.condIncorrect            21904                       # Number of conditional branches incorrect (Count)
system.cpu0.branchPred.BTBLookups              783257                       # Number of BTB lookups (Count)
system.cpu0.branchPred.BTBUpdates               10041                       # Number of BTB updates (Count)
system.cpu0.branchPred.BTBHits                 779497                       # Number of BTB hits (Count)
system.cpu0.branchPred.BTBHitRatio           0.995200                       # BTB Hit Ratio (Ratio)
system.cpu0.branchPred.RASUsed                  14833                       # Number of times the RAS was used to get a target. (Count)
system.cpu0.branchPred.RASIncorrect                 7                       # Number of incorrect RAS predictions. (Count)
system.cpu0.branchPred.indirectLookups           9579                       # Number of indirect predictor lookups. (Count)
system.cpu0.branchPred.indirectHits              5238                       # Number of indirect target hits. (Count)
system.cpu0.branchPred.indirectMisses            4341                       # Number of indirect misses. (Count)
system.cpu0.branchPred.indirectMispredicted         1128                       # Number of mispredicted indirect branches. (Count)
system.cpu0.commit.commitSquashedInsts        1498549                       # The number of squashed insts skipped by commit (Count)
system.cpu0.commit.commitNonSpecStalls            733                       # The number of times commit has been forced to stall to communicate backwards (Count)
system.cpu0.commit.branchMispredicts            23096                       # The number of times a branch was mispredicted (Count)
system.cpu0.commit.numCommittedDist::samples     12724690                       # Number of insts commited each cycle (Count)
system.cpu0.commit.numCommittedDist::mean     1.115735                       # Number of insts commited each cycle (Count)
system.cpu0.commit.numCommittedDist::stdev     2.157336                       # Number of insts commited each cycle (Count)
system.cpu0.commit.numCommittedDist::underflows            0      0.00%      0.00% # Number of insts commited each cycle (Count)
system.cpu0.commit.numCommittedDist::0        8250842     64.84%     64.84% # Number of insts commited each cycle (Count)
system.cpu0.commit.numCommittedDist::1        1733121     13.62%     78.46% # Number of insts commited each cycle (Count)
system.cpu0.commit.numCommittedDist::2        1018550      8.00%     86.47% # Number of insts commited each cycle (Count)
system.cpu0.commit.numCommittedDist::3         257087      2.02%     88.49% # Number of insts commited each cycle (Count)
system.cpu0.commit.numCommittedDist::4          57248      0.45%     88.94% # Number of insts commited each cycle (Count)
system.cpu0.commit.numCommittedDist::5         565138      4.44%     93.38% # Number of insts commited each cycle (Count)
system.cpu0.commit.numCommittedDist::6          35029      0.28%     93.65% # Number of insts commited each cycle (Count)
system.cpu0.commit.numCommittedDist::7          70353      0.55%     94.21% # Number of insts commited each cycle (Count)
system.cpu0.commit.numCommittedDist::8         737322      5.79%    100.00% # Number of insts commited each cycle (Count)
system.cpu0.commit.numCommittedDist::overflows            0      0.00%    100.00% # Number of insts commited each cycle (Count)
system.cpu0.commit.numCommittedDist::min_value            0                       # Number of insts commited each cycle (Count)
system.cpu0.commit.numCommittedDist::max_value            8                       # Number of insts commited each cycle (Count)
system.cpu0.commit.numCommittedDist::total     12724690                       # Number of insts commited each cycle (Count)
system.cpu0.commit.instsCommitted             8951894                       # Number of instructions committed (Count)
system.cpu0.commit.opsCommitted              14197385                       # Number of ops (including micro ops) committed (Count)
system.cpu0.commit.memRefs                     939028                       # Number of memory references committed (Count)
system.cpu0.commit.loads                       663264                       # Number of loads committed (Count)
system.cpu0.commit.amos                             0                       # Number of atomic instructions committed (Count)
system.cpu0.commit.membars                          0                       # Number of memory barriers committed (Count)
system.cpu0.commit.branches                    883190                       # Number of branches committed (Count)
system.cpu0.commit.vectorInstructions               0                       # Number of committed Vector instructions. (Count)
system.cpu0.commit.floating                     81362                       # Number of committed floating point instructions. (Count)
system.cpu0.commit.integer                   14075855                       # Number of committed integer instructions. (Count)
system.cpu0.commit.functionCalls                10861                       # Number of function calls committed. (Count)
system.cpu0.commit.committedInstType_0::No_OpClass        66426      0.47%      0.47% # Class of committed instruction (Count)
system.cpu0.commit.committedInstType_0::IntAlu     13110825     92.35%     92.81% # Class of committed instruction (Count)
system.cpu0.commit.committedInstType_0::IntMult           29      0.00%     92.81% # Class of committed instruction (Count)
system.cpu0.commit.committedInstType_0::IntDiv        36080      0.25%     93.07% # Class of committed instruction (Count)
system.cpu0.commit.committedInstType_0::FloatAdd         3064      0.02%     93.09% # Class of committed instruction (Count)
system.cpu0.commit.committedInstType_0::FloatCmp            0      0.00%     93.09% # Class of committed instruction (Count)
system.cpu0.commit.committedInstType_0::FloatCvt         1296      0.01%     93.10% # Class of committed instruction (Count)
system.cpu0.commit.committedInstType_0::FloatMult            0      0.00%     93.10% # Class of committed instruction (Count)
system.cpu0.commit.committedInstType_0::FloatMultAcc            0      0.00%     93.10% # Class of committed instruction (Count)
system.cpu0.commit.committedInstType_0::FloatDiv            0      0.00%     93.10% # Class of committed instruction (Count)
system.cpu0.commit.committedInstType_0::FloatMisc            0      0.00%     93.10% # Class of committed instruction (Count)
system.cpu0.commit.committedInstType_0::FloatSqrt            0      0.00%     93.10% # Class of committed instruction (Count)
system.cpu0.commit.committedInstType_0::SimdAdd         6678      0.05%     93.15% # Class of committed instruction (Count)
system.cpu0.commit.committedInstType_0::SimdAddAcc            0      0.00%     93.15% # Class of committed instruction (Count)
system.cpu0.commit.committedInstType_0::SimdAlu        12106      0.09%     93.23% # Class of committed instruction (Count)
system.cpu0.commit.committedInstType_0::SimdCmp            0      0.00%     93.23% # Class of committed instruction (Count)
system.cpu0.commit.committedInstType_0::SimdCvt        13052      0.09%     93.32% # Class of committed instruction (Count)
system.cpu0.commit.committedInstType_0::SimdMisc         7088      0.05%     93.37% # Class of committed instruction (Count)
system.cpu0.commit.committedInstType_0::SimdMult            0      0.00%     93.37% # Class of committed instruction (Count)
system.cpu0.commit.committedInstType_0::SimdMultAcc            0      0.00%     93.37% # Class of committed instruction (Count)
system.cpu0.commit.committedInstType_0::SimdShift         1713      0.01%     93.39% # Class of committed instruction (Count)
system.cpu0.commit.committedInstType_0::SimdShiftAcc            0      0.00%     93.39% # Class of committed instruction (Count)
system.cpu0.commit.committedInstType_0::SimdDiv            0      0.00%     93.39% # Class of committed instruction (Count)
system.cpu0.commit.committedInstType_0::SimdSqrt            0      0.00%     93.39% # Class of committed instruction (Count)
system.cpu0.commit.committedInstType_0::SimdFloatAdd            0      0.00%     93.39% # Class of committed instruction (Count)
system.cpu0.commit.committedInstType_0::SimdFloatAlu            0      0.00%     93.39% # Class of committed instruction (Count)
system.cpu0.commit.committedInstType_0::SimdFloatCmp            0      0.00%     93.39% # Class of committed instruction (Count)
system.cpu0.commit.committedInstType_0::SimdFloatCvt            0      0.00%     93.39% # Class of committed instruction (Count)
system.cpu0.commit.committedInstType_0::SimdFloatDiv            0      0.00%     93.39% # Class of committed instruction (Count)
system.cpu0.commit.committedInstType_0::SimdFloatMisc            0      0.00%     93.39% # Class of committed instruction (Count)
system.cpu0.commit.committedInstType_0::SimdFloatMult            0      0.00%     93.39% # Class of committed instruction (Count)
system.cpu0.commit.committedInstType_0::SimdFloatMultAcc            0      0.00%     93.39% # Class of committed instruction (Count)
system.cpu0.commit.committedInstType_0::SimdFloatSqrt            0      0.00%     93.39% # Class of committed instruction (Count)
system.cpu0.commit.committedInstType_0::SimdReduceAdd            0      0.00%     93.39% # Class of committed instruction (Count)
system.cpu0.commit.committedInstType_0::SimdReduceAlu            0      0.00%     93.39% # Class of committed instruction (Count)
system.cpu0.commit.committedInstType_0::SimdReduceCmp            0      0.00%     93.39% # Class of committed instruction (Count)
system.cpu0.commit.committedInstType_0::SimdFloatReduceAdd            0      0.00%     93.39% # Class of committed instruction (Count)
system.cpu0.commit.committedInstType_0::SimdFloatReduceCmp            0      0.00%     93.39% # Class of committed instruction (Count)
system.cpu0.commit.committedInstType_0::SimdAes            0      0.00%     93.39% # Class of committed instruction (Count)
system.cpu0.commit.committedInstType_0::SimdAesMix            0      0.00%     93.39% # Class of committed instruction (Count)
system.cpu0.commit.committedInstType_0::SimdSha1Hash            0      0.00%     93.39% # Class of committed instruction (Count)
system.cpu0.commit.committedInstType_0::SimdSha1Hash2            0      0.00%     93.39% # Class of committed instruction (Count)
system.cpu0.commit.committedInstType_0::SimdSha256Hash            0      0.00%     93.39% # Class of committed instruction (Count)
system.cpu0.commit.committedInstType_0::SimdSha256Hash2            0      0.00%     93.39% # Class of committed instruction (Count)
system.cpu0.commit.committedInstType_0::SimdShaSigma2            0      0.00%     93.39% # Class of committed instruction (Count)
system.cpu0.commit.committedInstType_0::SimdShaSigma3            0      0.00%     93.39% # Class of committed instruction (Count)
system.cpu0.commit.committedInstType_0::SimdPredAlu            0      0.00%     93.39% # Class of committed instruction (Count)
system.cpu0.commit.committedInstType_0::MemRead       641971      4.52%     97.91% # Class of committed instruction (Count)
system.cpu0.commit.committedInstType_0::MemWrite       261580      1.84%     99.75% # Class of committed instruction (Count)
system.cpu0.commit.committedInstType_0::FloatMemRead        21293      0.15%     99.90% # Class of committed instruction (Count)
system.cpu0.commit.committedInstType_0::FloatMemWrite        14184      0.10%    100.00% # Class of committed instruction (Count)
system.cpu0.commit.committedInstType_0::IprAccess            0      0.00%    100.00% # Class of committed instruction (Count)
system.cpu0.commit.committedInstType_0::InstPrefetch            0      0.00%    100.00% # Class of committed instruction (Count)
system.cpu0.commit.committedInstType_0::total     14197385                       # Class of committed instruction (Count)
system.cpu0.commit.commitEligibleSamples       737322                       # number cycles where commit BW limit reached (Cycle)
system.cpu0.decode.idleCycles                  900756                       # Number of cycles decode is idle (Cycle)
system.cpu0.decode.blockedCycles              9883988                       # Number of cycles decode is blocked (Cycle)
system.cpu0.decode.runCycles                   920511                       # Number of cycles decode is running (Cycle)
system.cpu0.decode.unblockCycles              1200172                       # Number of cycles decode is unblocking (Cycle)
system.cpu0.decode.squashCycles                 32078                       # Number of cycles decode is squashing (Cycle)
system.cpu0.decode.branchResolved              748846                       # Number of times decode resolved a branch (Count)
system.cpu0.decode.branchMispred                 1086                       # Number of times decode detected a branch misprediction (Count)
system.cpu0.decode.decodedInsts              16102862                       # Number of instructions handled by decode (Count)
system.cpu0.decode.squashedInsts                 5122                       # Number of squashed instructions handled by decode (Count)
system.cpu0.fetch.icacheStallCycles           1383377                       # Number of cycles fetch is stalled on an Icache miss (Cycle)
system.cpu0.fetch.insts                      10316887                       # Number of instructions fetch has processed (Count)
system.cpu0.fetch.branches                    1088439                       # Number of branches that fetch encountered (Count)
system.cpu0.fetch.predictedBranches            799568                       # Number of branches that fetch has predicted taken (Count)
system.cpu0.fetch.cycles                     11274390                       # Number of cycles fetch has run and was not squashing or blocked (Cycle)
system.cpu0.fetch.squashCycles                  66278                       # Number of cycles fetch has spent squashing (Cycle)
system.cpu0.fetch.miscStallCycles               12527                       # Number of cycles fetch has spent waiting on interrupts, or bad addresses, or out of MSHRs (Cycle)
system.cpu0.fetch.pendingTrapStallCycles        14771                       # Number of stall cycles due to pending traps (Cycle)
system.cpu0.fetch.icacheWaitRetryStallCycles       219301                       # Number of stall cycles due to full MSHR (Cycle)
system.cpu0.fetch.cacheLines                  1186933                       # Number of cache lines fetched (Count)
system.cpu0.fetch.icacheSquashes                 7095                       # Number of outstanding Icache misses that were squashed (Count)
system.cpu0.fetch.nisnDist::samples          12937505                       # Number of instructions fetched each cycle (Total) (Count)
system.cpu0.fetch.nisnDist::mean             1.287774                       # Number of instructions fetched each cycle (Total) (Count)
system.cpu0.fetch.nisnDist::stdev            2.657288                       # Number of instructions fetched each cycle (Total) (Count)
system.cpu0.fetch.nisnDist::underflows              0      0.00%      0.00% # Number of instructions fetched each cycle (Total) (Count)
system.cpu0.fetch.nisnDist::0                10043167     77.63%     77.63% # Number of instructions fetched each cycle (Total) (Count)
system.cpu0.fetch.nisnDist::1                  181245      1.40%     79.03% # Number of instructions fetched each cycle (Total) (Count)
system.cpu0.fetch.nisnDist::2                  192986      1.49%     80.52% # Number of instructions fetched each cycle (Total) (Count)
system.cpu0.fetch.nisnDist::3                  268863      2.08%     82.60% # Number of instructions fetched each cycle (Total) (Count)
system.cpu0.fetch.nisnDist::4                  373130      2.88%     85.48% # Number of instructions fetched each cycle (Total) (Count)
system.cpu0.fetch.nisnDist::5                  222871      1.72%     87.21% # Number of instructions fetched each cycle (Total) (Count)
system.cpu0.fetch.nisnDist::6                  194649      1.50%     88.71% # Number of instructions fetched each cycle (Total) (Count)
system.cpu0.fetch.nisnDist::7                  172738      1.34%     90.05% # Number of instructions fetched each cycle (Total) (Count)
system.cpu0.fetch.nisnDist::8                 1287856      9.95%    100.00% # Number of instructions fetched each cycle (Total) (Count)
system.cpu0.fetch.nisnDist::overflows               0      0.00%    100.00% # Number of instructions fetched each cycle (Total) (Count)
system.cpu0.fetch.nisnDist::min_value               0                       # Number of instructions fetched each cycle (Total) (Count)
system.cpu0.fetch.nisnDist::max_value               8                       # Number of instructions fetched each cycle (Total) (Count)
system.cpu0.fetch.nisnDist::total            12937505                       # Number of instructions fetched each cycle (Total) (Count)
system.cpu0.fetch.branchRate                 0.077364                       # Number of branch fetches per cycle (Ratio)
system.cpu0.fetch.rate                       0.733308                       # Number of inst fetches per cycle ((Count/Cycle))
system.cpu0.iew.idleCycles                          0                       # Number of cycles IEW is idle (Cycle)
system.cpu0.iew.squashCycles                    32078                       # Number of cycles IEW is squashing (Cycle)
system.cpu0.iew.blockCycles                   5376956                       # Number of cycles IEW is blocking (Cycle)
system.cpu0.iew.unblockCycles                  148951                       # Number of cycles IEW is unblocking (Cycle)
system.cpu0.iew.dispatchedInsts              15705074                       # Number of instructions dispatched to IQ (Count)
system.cpu0.iew.dispSquashedInsts                2130                       # Number of squashed instructions skipped by dispatch (Count)
system.cpu0.iew.dispLoadInsts                  899570                       # Number of dispatched load instructions (Count)
system.cpu0.iew.dispStoreInsts                 389205                       # Number of dispatched store instructions (Count)
system.cpu0.iew.dispNonSpecInsts                  749                       # Number of dispatched non-speculative instructions (Count)
system.cpu0.iew.iqFullEvents                     7358                       # Number of times the IQ has become full, causing a stall (Count)
system.cpu0.iew.lsqFullEvents                  136506                       # Number of times the LSQ has become full, causing a stall (Count)
system.cpu0.iew.memOrderViolationEvents          8432                       # Number of memory order violations (Count)
system.cpu0.iew.predictedTakenIncorrect         11384                       # Number of branches that were predicted taken incorrectly (Count)
system.cpu0.iew.predictedNotTakenIncorrect        13919                       # Number of branches that were predicted not taken incorrectly (Count)
system.cpu0.iew.branchMispredicts               25303                       # Number of branch mispredicts detected at execute (Count)
system.cpu0.iew.instsToCommit                15016883                       # Cumulative count of insts sent to commit (Count)
system.cpu0.iew.writebackCount               15002273                       # Cumulative count of insts written-back (Count)
system.cpu0.iew.producerInst                 12982610                       # Number of instructions producing a value (Count)
system.cpu0.iew.consumerInst                 32035224                       # Number of instructions consuming a value (Count)
system.cpu0.iew.wbRate                       1.066337                       # Insts written-back per cycle ((Count/Cycle))
system.cpu0.iew.wbFanout                     0.405260                       # Average fanout of values written-back ((Count/Count))
system.cpu0.interrupts.clk_domain.clock          8000                       # Clock period in ticks (Tick)
system.cpu0.lsq0.forwLoads                      61428                       # Number of loads that had data forwarded from stores (Count)
system.cpu0.lsq0.squashedLoads                 236306                       # Number of loads squashed (Count)
system.cpu0.lsq0.ignoredResponses                  98                       # Number of memory responses ignored because the instruction is squashed (Count)
system.cpu0.lsq0.memOrderViolation               8432                       # Number of memory ordering violations (Count)
system.cpu0.lsq0.squashedStores                113441                       # Number of stores squashed (Count)
system.cpu0.lsq0.rescheduledLoads                 159                       # Number of loads that were rescheduled (Count)
system.cpu0.lsq0.blockedByCache                  2099                       # Number of times an access to memory failed due to the cache being blocked (Count)
system.cpu0.lsq0.loadToUse::samples            663186                       # Distribution of cycle latency between the first time a load is issued and its completion (Unspecified)
system.cpu0.lsq0.loadToUse::mean            52.548250                       # Distribution of cycle latency between the first time a load is issued and its completion (Unspecified)
system.cpu0.lsq0.loadToUse::stdev          199.770399                       # Distribution of cycle latency between the first time a load is issued and its completion (Unspecified)
system.cpu0.lsq0.loadToUse::0-9                618078     93.20%     93.20% # Distribution of cycle latency between the first time a load is issued and its completion (Unspecified)
system.cpu0.lsq0.loadToUse::10-19                  48      0.01%     93.21% # Distribution of cycle latency between the first time a load is issued and its completion (Unspecified)
system.cpu0.lsq0.loadToUse::20-29                  95      0.01%     93.22% # Distribution of cycle latency between the first time a load is issued and its completion (Unspecified)
system.cpu0.lsq0.loadToUse::30-39                  98      0.01%     93.23% # Distribution of cycle latency between the first time a load is issued and its completion (Unspecified)
system.cpu0.lsq0.loadToUse::40-49                  73      0.01%     93.25% # Distribution of cycle latency between the first time a load is issued and its completion (Unspecified)
system.cpu0.lsq0.loadToUse::50-59                 107      0.02%     93.26% # Distribution of cycle latency between the first time a load is issued and its completion (Unspecified)
system.cpu0.lsq0.loadToUse::60-69                  63      0.01%     93.27% # Distribution of cycle latency between the first time a load is issued and its completion (Unspecified)
system.cpu0.lsq0.loadToUse::70-79                  76      0.01%     93.28% # Distribution of cycle latency between the first time a load is issued and its completion (Unspecified)
system.cpu0.lsq0.loadToUse::80-89                  65      0.01%     93.29% # Distribution of cycle latency between the first time a load is issued and its completion (Unspecified)
system.cpu0.lsq0.loadToUse::90-99                  52      0.01%     93.30% # Distribution of cycle latency between the first time a load is issued and its completion (Unspecified)
system.cpu0.lsq0.loadToUse::100-109                58      0.01%     93.31% # Distribution of cycle latency between the first time a load is issued and its completion (Unspecified)
system.cpu0.lsq0.loadToUse::110-119                81      0.01%     93.32% # Distribution of cycle latency between the first time a load is issued and its completion (Unspecified)
system.cpu0.lsq0.loadToUse::120-129                61      0.01%     93.33% # Distribution of cycle latency between the first time a load is issued and its completion (Unspecified)
system.cpu0.lsq0.loadToUse::130-139                36      0.01%     93.34% # Distribution of cycle latency between the first time a load is issued and its completion (Unspecified)
system.cpu0.lsq0.loadToUse::140-149                38      0.01%     93.34% # Distribution of cycle latency between the first time a load is issued and its completion (Unspecified)
system.cpu0.lsq0.loadToUse::150-159                57      0.01%     93.35% # Distribution of cycle latency between the first time a load is issued and its completion (Unspecified)
system.cpu0.lsq0.loadToUse::160-169                65      0.01%     93.36% # Distribution of cycle latency between the first time a load is issued and its completion (Unspecified)
system.cpu0.lsq0.loadToUse::170-179               143      0.02%     93.38% # Distribution of cycle latency between the first time a load is issued and its completion (Unspecified)
system.cpu0.lsq0.loadToUse::180-189               571      0.09%     93.47% # Distribution of cycle latency between the first time a load is issued and its completion (Unspecified)
system.cpu0.lsq0.loadToUse::190-199                57      0.01%     93.48% # Distribution of cycle latency between the first time a load is issued and its completion (Unspecified)
system.cpu0.lsq0.loadToUse::200-209                50      0.01%     93.48% # Distribution of cycle latency between the first time a load is issued and its completion (Unspecified)
system.cpu0.lsq0.loadToUse::210-219                52      0.01%     93.49% # Distribution of cycle latency between the first time a load is issued and its completion (Unspecified)
system.cpu0.lsq0.loadToUse::220-229                87      0.01%     93.50% # Distribution of cycle latency between the first time a load is issued and its completion (Unspecified)
system.cpu0.lsq0.loadToUse::230-239               112      0.02%     93.52% # Distribution of cycle latency between the first time a load is issued and its completion (Unspecified)
system.cpu0.lsq0.loadToUse::240-249               539      0.08%     93.60% # Distribution of cycle latency between the first time a load is issued and its completion (Unspecified)
system.cpu0.lsq0.loadToUse::250-259                42      0.01%     93.61% # Distribution of cycle latency between the first time a load is issued and its completion (Unspecified)
system.cpu0.lsq0.loadToUse::260-269                19      0.00%     93.61% # Distribution of cycle latency between the first time a load is issued and its completion (Unspecified)
system.cpu0.lsq0.loadToUse::270-279                46      0.01%     93.62% # Distribution of cycle latency between the first time a load is issued and its completion (Unspecified)
system.cpu0.lsq0.loadToUse::280-289               116      0.02%     93.64% # Distribution of cycle latency between the first time a load is issued and its completion (Unspecified)
system.cpu0.lsq0.loadToUse::290-299               140      0.02%     93.66% # Distribution of cycle latency between the first time a load is issued and its completion (Unspecified)
system.cpu0.lsq0.loadToUse::overflows           42061      6.34%    100.00% # Distribution of cycle latency between the first time a load is issued and its completion (Unspecified)
system.cpu0.lsq0.loadToUse::min_value               2                       # Distribution of cycle latency between the first time a load is issued and its completion (Unspecified)
system.cpu0.lsq0.loadToUse::max_value            2466                       # Distribution of cycle latency between the first time a load is issued and its completion (Unspecified)
system.cpu0.lsq0.loadToUse::total              663186                       # Distribution of cycle latency between the first time a load is issued and its completion (Unspecified)
system.cpu0.mmu.dtb.rdAccesses                 789428                       # TLB accesses on read requests (Count)
system.cpu0.mmu.dtb.wrAccesses                 313509                       # TLB accesses on write requests (Count)
system.cpu0.mmu.dtb.rdMisses                     3174                       # TLB misses on read requests (Count)
system.cpu0.mmu.dtb.wrMisses                      429                       # TLB misses on write requests (Count)
system.cpu0.mmu.dtb.walker.power_state.pwrStateResidencyTicks::UNDEFINED   7034486500                       # Cumulative time (in ticks) in various power states (Tick)
system.cpu0.mmu.itb.rdAccesses                      0                       # TLB accesses on read requests (Count)
system.cpu0.mmu.itb.wrAccesses                1189260                       # TLB accesses on write requests (Count)
system.cpu0.mmu.itb.rdMisses                        0                       # TLB misses on read requests (Count)
system.cpu0.mmu.itb.wrMisses                     2876                       # TLB misses on write requests (Count)
system.cpu0.mmu.itb.walker.power_state.pwrStateResidencyTicks::UNDEFINED   7034486500                       # Cumulative time (in ticks) in various power states (Tick)
system.cpu0.power_state.pwrStateResidencyTicks::ON   7034486500                       # Cumulative time (in ticks) in various power states (Tick)
system.cpu0.rename.squashCycles                 32078                       # Number of cycles rename is squashing (Cycle)
system.cpu0.rename.idleCycles                 1335054                       # Number of cycles rename is idle (Cycle)
system.cpu0.rename.blockCycles                7117297                       # Number of cycles rename is blocking (Cycle)
system.cpu0.rename.serializeStallCycles         20948                       # count of cycles rename stalled for serializing inst (Cycle)
system.cpu0.rename.runCycles                  1665040                       # Number of cycles rename is running (Cycle)
system.cpu0.rename.unblockCycles              2767088                       # Number of cycles rename is unblocking (Cycle)
system.cpu0.rename.renamedInsts              15920134                       # Number of instructions processed by rename (Count)
system.cpu0.rename.ROBFullEvents               121256                       # Number of times rename has blocked due to ROB full (Count)
system.cpu0.rename.IQFullEvents               1665931                       # Number of times rename has blocked due to IQ full (Count)
system.cpu0.rename.LQFullEvents                162450                       # Number of times rename has blocked due to LQ full (Count)
system.cpu0.rename.SQFullEvents                545487                       # Number of times rename has blocked due to SQ full (Count)
system.cpu0.rename.fullRegistersEvents           3209                       # Number of times there has been no free registers (Count)
system.cpu0.rename.renamedOperands           36181703                       # Number of destination operands rename has renamed (Count)
system.cpu0.rename.lookups                   70218332                       # Number of register rename lookups that rename has made (Count)
system.cpu0.rename.intLookups                27978198                       # Number of integer rename lookups (Count)
system.cpu0.rename.fpLookups                   188880                       # Number of floating rename lookups (Count)
system.cpu0.rename.committedMaps             32988516                       # Number of HB maps that are committed (Count)
system.cpu0.rename.undoneMaps                 3192942                       # Number of HB maps that are undone due to squashing (Count)
system.cpu0.rename.serializing                    756                       # count of serializing insts renamed (Count)
system.cpu0.rename.tempSerializing                742                       # count of temporary serializing insts renamed (Count)
system.cpu0.rename.skidInsts                  5545039                       # count of insts added to the skid buffer (Count)
system.cpu0.rob.reads                        27675762                       # The number of ROB reads (Count)
system.cpu0.rob.writes                       31605013                       # The number of ROB writes (Count)
system.cpu0.thread_0.numInsts                 8951894                       # Number of Instructions committed (Count)
system.cpu0.thread_0.numOps                  14197385                       # Number of Ops committed (Count)
system.cpu0.thread_0.numMemRefs                     0                       # Number of Memory References (Count)
system.cpu0.workload.numSyscalls                   62                       # Number of system calls (Count)
system.cpu1.numCycles                        14068974                       # Number of cpu cycles simulated (Cycle)
system.cpu1.numWorkItemsStarted                     0                       # Number of work items this cpu started (Count)
system.cpu1.numWorkItemsCompleted                   0                       # Number of work items this cpu completed (Count)
system.cpu1.instsAdded                       16437959                       # Number of instructions added to the IQ (excludes non-spec) (Count)
system.cpu1.nonSpecInstsAdded                     881                       # Number of non-speculative instructions added to the IQ (Count)
system.cpu1.instsIssued                      15811275                       # Number of instructions issued (Count)
system.cpu1.squashedInstsIssued                  2835                       # Number of squashed instructions issued (Count)
system.cpu1.squashedInstsExamined             1534945                       # Number of squashed instructions iterated over during squash; mainly for profiling (Count)
system.cpu1.squashedOperandsExamined          3212270                       # Number of squashed operands that are examined and possibly removed from graph (Count)
system.cpu1.squashedNonSpecRemoved                148                       # Number of squashed non-spec instructions that were removed (Count)
system.cpu1.numIssuedDist::samples           12995156                       # Number of insts issued each cycle (Count)
system.cpu1.numIssuedDist::mean              1.216705                       # Number of insts issued each cycle (Count)
system.cpu1.numIssuedDist::stdev             1.758491                       # Number of insts issued each cycle (Count)
system.cpu1.numIssuedDist::underflows               0      0.00%      0.00% # Number of insts issued each cycle (Count)
system.cpu1.numIssuedDist::0                  7914903     60.91%     60.91% # Number of insts issued each cycle (Count)
system.cpu1.numIssuedDist::1                   487831      3.75%     64.66% # Number of insts issued each cycle (Count)
system.cpu1.numIssuedDist::2                  1395383     10.74%     75.40% # Number of insts issued each cycle (Count)
system.cpu1.numIssuedDist::3                  1535850     11.82%     87.22% # Number of insts issued each cycle (Count)
system.cpu1.numIssuedDist::4                   878376      6.76%     93.98% # Number of insts issued each cycle (Count)
system.cpu1.numIssuedDist::5                   458489      3.53%     97.50% # Number of insts issued each cycle (Count)
system.cpu1.numIssuedDist::6                   194340      1.50%     99.00% # Number of insts issued each cycle (Count)
system.cpu1.numIssuedDist::7                    86733      0.67%     99.67% # Number of insts issued each cycle (Count)
system.cpu1.numIssuedDist::8                    43251      0.33%    100.00% # Number of insts issued each cycle (Count)
system.cpu1.numIssuedDist::overflows                0      0.00%    100.00% # Number of insts issued each cycle (Count)
system.cpu1.numIssuedDist::min_value                0                       # Number of insts issued each cycle (Count)
system.cpu1.numIssuedDist::max_value                8                       # Number of insts issued each cycle (Count)
system.cpu1.numIssuedDist::total             12995156                       # Number of insts issued each cycle (Count)
system.cpu1.statFuBusy::No_OpClass                  0      0.00%      0.00% # attempts to use FU when none available (Count)
system.cpu1.statFuBusy::IntAlu                  58010     72.51%     72.51% # attempts to use FU when none available (Count)
system.cpu1.statFuBusy::IntMult                     0      0.00%     72.51% # attempts to use FU when none available (Count)
system.cpu1.statFuBusy::IntDiv                      0      0.00%     72.51% # attempts to use FU when none available (Count)
system.cpu1.statFuBusy::FloatAdd                    0      0.00%     72.51% # attempts to use FU when none available (Count)
system.cpu1.statFuBusy::FloatCmp                    0      0.00%     72.51% # attempts to use FU when none available (Count)
system.cpu1.statFuBusy::FloatCvt                    0      0.00%     72.51% # attempts to use FU when none available (Count)
system.cpu1.statFuBusy::FloatMult                   0      0.00%     72.51% # attempts to use FU when none available (Count)
system.cpu1.statFuBusy::FloatMultAcc                0      0.00%     72.51% # attempts to use FU when none available (Count)
system.cpu1.statFuBusy::FloatDiv                    0      0.00%     72.51% # attempts to use FU when none available (Count)
system.cpu1.statFuBusy::FloatMisc                   0      0.00%     72.51% # attempts to use FU when none available (Count)
system.cpu1.statFuBusy::FloatSqrt                   0      0.00%     72.51% # attempts to use FU when none available (Count)
system.cpu1.statFuBusy::SimdAdd                     0      0.00%     72.51% # attempts to use FU when none available (Count)
system.cpu1.statFuBusy::SimdAddAcc                  0      0.00%     72.51% # attempts to use FU when none available (Count)
system.cpu1.statFuBusy::SimdAlu                   123      0.15%     72.67% # attempts to use FU when none available (Count)
system.cpu1.statFuBusy::SimdCmp                     0      0.00%     72.67% # attempts to use FU when none available (Count)
system.cpu1.statFuBusy::SimdCvt                   161      0.20%     72.87% # attempts to use FU when none available (Count)
system.cpu1.statFuBusy::SimdMisc                    0      0.00%     72.87% # attempts to use FU when none available (Count)
system.cpu1.statFuBusy::SimdMult                    0      0.00%     72.87% # attempts to use FU when none available (Count)
system.cpu1.statFuBusy::SimdMultAcc                 0      0.00%     72.87% # attempts to use FU when none available (Count)
system.cpu1.statFuBusy::SimdShift                 208      0.26%     73.13% # attempts to use FU when none available (Count)
system.cpu1.statFuBusy::SimdShiftAcc                0      0.00%     73.13% # attempts to use FU when none available (Count)
system.cpu1.statFuBusy::SimdDiv                     0      0.00%     73.13% # attempts to use FU when none available (Count)
system.cpu1.statFuBusy::SimdSqrt                    0      0.00%     73.13% # attempts to use FU when none available (Count)
system.cpu1.statFuBusy::SimdFloatAdd                0      0.00%     73.13% # attempts to use FU when none available (Count)
system.cpu1.statFuBusy::SimdFloatAlu                0      0.00%     73.13% # attempts to use FU when none available (Count)
system.cpu1.statFuBusy::SimdFloatCmp                0      0.00%     73.13% # attempts to use FU when none available (Count)
system.cpu1.statFuBusy::SimdFloatCvt                0      0.00%     73.13% # attempts to use FU when none available (Count)
system.cpu1.statFuBusy::SimdFloatDiv                0      0.00%     73.13% # attempts to use FU when none available (Count)
system.cpu1.statFuBusy::SimdFloatMisc               0      0.00%     73.13% # attempts to use FU when none available (Count)
system.cpu1.statFuBusy::SimdFloatMult               0      0.00%     73.13% # attempts to use FU when none available (Count)
system.cpu1.statFuBusy::SimdFloatMultAcc            0      0.00%     73.13% # attempts to use FU when none available (Count)
system.cpu1.statFuBusy::SimdFloatSqrt               0      0.00%     73.13% # attempts to use FU when none available (Count)
system.cpu1.statFuBusy::SimdReduceAdd               0      0.00%     73.13% # attempts to use FU when none available (Count)
system.cpu1.statFuBusy::SimdReduceAlu               0      0.00%     73.13% # attempts to use FU when none available (Count)
system.cpu1.statFuBusy::SimdReduceCmp               0      0.00%     73.13% # attempts to use FU when none available (Count)
system.cpu1.statFuBusy::SimdFloatReduceAdd            0      0.00%     73.13% # attempts to use FU when none available (Count)
system.cpu1.statFuBusy::SimdFloatReduceCmp            0      0.00%     73.13% # attempts to use FU when none available (Count)
system.cpu1.statFuBusy::SimdAes                     0      0.00%     73.13% # attempts to use FU when none available (Count)
system.cpu1.statFuBusy::SimdAesMix                  0      0.00%     73.13% # attempts to use FU when none available (Count)
system.cpu1.statFuBusy::SimdSha1Hash                0      0.00%     73.13% # attempts to use FU when none available (Count)
system.cpu1.statFuBusy::SimdSha1Hash2               0      0.00%     73.13% # attempts to use FU when none available (Count)
system.cpu1.statFuBusy::SimdSha256Hash              0      0.00%     73.13% # attempts to use FU when none available (Count)
system.cpu1.statFuBusy::SimdSha256Hash2             0      0.00%     73.13% # attempts to use FU when none available (Count)
system.cpu1.statFuBusy::SimdShaSigma2               0      0.00%     73.13% # attempts to use FU when none available (Count)
system.cpu1.statFuBusy::SimdShaSigma3               0      0.00%     73.13% # attempts to use FU when none available (Count)
system.cpu1.statFuBusy::SimdPredAlu                 0      0.00%     73.13% # attempts to use FU when none available (Count)
system.cpu1.statFuBusy::MemRead                 12037     15.05%     88.17% # attempts to use FU when none available (Count)
system.cpu1.statFuBusy::MemWrite                 7667      9.58%     97.76% # attempts to use FU when none available (Count)
system.cpu1.statFuBusy::FloatMemRead             1345      1.68%     99.44% # attempts to use FU when none available (Count)
system.cpu1.statFuBusy::FloatMemWrite             448      0.56%    100.00% # attempts to use FU when none available (Count)
system.cpu1.statFuBusy::IprAccess                   0      0.00%    100.00% # attempts to use FU when none available (Count)
system.cpu1.statFuBusy::InstPrefetch                0      0.00%    100.00% # attempts to use FU when none available (Count)
system.cpu1.statIssuedInstType_0::No_OpClass        78247      0.49%      0.49% # Number of instructions issued per FU type, per thread (Count)
system.cpu1.statIssuedInstType_0::IntAlu     14490337     91.65%     92.14% # Number of instructions issued per FU type, per thread (Count)
system.cpu1.statIssuedInstType_0::IntMult           36      0.00%     92.14% # Number of instructions issued per FU type, per thread (Count)
system.cpu1.statIssuedInstType_0::IntDiv        38433      0.24%     92.38% # Number of instructions issued per FU type, per thread (Count)
system.cpu1.statIssuedInstType_0::FloatAdd         4216      0.03%     92.41% # Number of instructions issued per FU type, per thread (Count)
system.cpu1.statIssuedInstType_0::FloatCmp            0      0.00%     92.41% # Number of instructions issued per FU type, per thread (Count)
system.cpu1.statIssuedInstType_0::FloatCvt         1466      0.01%     92.42% # Number of instructions issued per FU type, per thread (Count)
system.cpu1.statIssuedInstType_0::FloatMult            0      0.00%     92.42% # Number of instructions issued per FU type, per thread (Count)
system.cpu1.statIssuedInstType_0::FloatMultAcc            0      0.00%     92.42% # Number of instructions issued per FU type, per thread (Count)
system.cpu1.statIssuedInstType_0::FloatDiv            0      0.00%     92.42% # Number of instructions issued per FU type, per thread (Count)
system.cpu1.statIssuedInstType_0::FloatMisc            0      0.00%     92.42% # Number of instructions issued per FU type, per thread (Count)
system.cpu1.statIssuedInstType_0::FloatSqrt            0      0.00%     92.42% # Number of instructions issued per FU type, per thread (Count)
system.cpu1.statIssuedInstType_0::SimdAdd         8413      0.05%     92.47% # Number of instructions issued per FU type, per thread (Count)
system.cpu1.statIssuedInstType_0::SimdAddAcc            0      0.00%     92.47% # Number of instructions issued per FU type, per thread (Count)
system.cpu1.statIssuedInstType_0::SimdAlu        17021      0.11%     92.58% # Number of instructions issued per FU type, per thread (Count)
system.cpu1.statIssuedInstType_0::SimdCmp            0      0.00%     92.58% # Number of instructions issued per FU type, per thread (Count)
system.cpu1.statIssuedInstType_0::SimdCvt        18618      0.12%     92.70% # Number of instructions issued per FU type, per thread (Count)
system.cpu1.statIssuedInstType_0::SimdMisc         8812      0.06%     92.75% # Number of instructions issued per FU type, per thread (Count)
system.cpu1.statIssuedInstType_0::SimdMult            0      0.00%     92.75% # Number of instructions issued per FU type, per thread (Count)
system.cpu1.statIssuedInstType_0::SimdMultAcc            0      0.00%     92.75% # Number of instructions issued per FU type, per thread (Count)
system.cpu1.statIssuedInstType_0::SimdShift         2920      0.02%     92.77% # Number of instructions issued per FU type, per thread (Count)
system.cpu1.statIssuedInstType_0::SimdShiftAcc            0      0.00%     92.77% # Number of instructions issued per FU type, per thread (Count)
system.cpu1.statIssuedInstType_0::SimdDiv            0      0.00%     92.77% # Number of instructions issued per FU type, per thread (Count)
system.cpu1.statIssuedInstType_0::SimdSqrt            0      0.00%     92.77% # Number of instructions issued per FU type, per thread (Count)
system.cpu1.statIssuedInstType_0::SimdFloatAdd            0      0.00%     92.77% # Number of instructions issued per FU type, per thread (Count)
system.cpu1.statIssuedInstType_0::SimdFloatAlu            0      0.00%     92.77% # Number of instructions issued per FU type, per thread (Count)
system.cpu1.statIssuedInstType_0::SimdFloatCmp            0      0.00%     92.77% # Number of instructions issued per FU type, per thread (Count)
system.cpu1.statIssuedInstType_0::SimdFloatCvt            0      0.00%     92.77% # Number of instructions issued per FU type, per thread (Count)
system.cpu1.statIssuedInstType_0::SimdFloatDiv            0      0.00%     92.77% # Number of instructions issued per FU type, per thread (Count)
system.cpu1.statIssuedInstType_0::SimdFloatMisc            0      0.00%     92.77% # Number of instructions issued per FU type, per thread (Count)
system.cpu1.statIssuedInstType_0::SimdFloatMult            0      0.00%     92.77% # Number of instructions issued per FU type, per thread (Count)
system.cpu1.statIssuedInstType_0::SimdFloatMultAcc            0      0.00%     92.77% # Number of instructions issued per FU type, per thread (Count)
system.cpu1.statIssuedInstType_0::SimdFloatSqrt            0      0.00%     92.77% # Number of instructions issued per FU type, per thread (Count)
system.cpu1.statIssuedInstType_0::SimdReduceAdd            0      0.00%     92.77% # Number of instructions issued per FU type, per thread (Count)
system.cpu1.statIssuedInstType_0::SimdReduceAlu            0      0.00%     92.77% # Number of instructions issued per FU type, per thread (Count)
system.cpu1.statIssuedInstType_0::SimdReduceCmp            0      0.00%     92.77% # Number of instructions issued per FU type, per thread (Count)
system.cpu1.statIssuedInstType_0::SimdFloatReduceAdd            0      0.00%     92.77% # Number of instructions issued per FU type, per thread (Count)
system.cpu1.statIssuedInstType_0::SimdFloatReduceCmp            0      0.00%     92.77% # Number of instructions issued per FU type, per thread (Count)
system.cpu1.statIssuedInstType_0::SimdAes            0      0.00%     92.77% # Number of instructions issued per FU type, per thread (Count)
system.cpu1.statIssuedInstType_0::SimdAesMix            0      0.00%     92.77% # Number of instructions issued per FU type, per thread (Count)
system.cpu1.statIssuedInstType_0::SimdSha1Hash            0      0.00%     92.77% # Number of instructions issued per FU type, per thread (Count)
system.cpu1.statIssuedInstType_0::SimdSha1Hash2            0      0.00%     92.77% # Number of instructions issued per FU type, per thread (Count)
system.cpu1.statIssuedInstType_0::SimdSha256Hash            0      0.00%     92.77% # Number of instructions issued per FU type, per thread (Count)
system.cpu1.statIssuedInstType_0::SimdSha256Hash2            0      0.00%     92.77% # Number of instructions issued per FU type, per thread (Count)
system.cpu1.statIssuedInstType_0::SimdShaSigma2            0      0.00%     92.77% # Number of instructions issued per FU type, per thread (Count)
system.cpu1.statIssuedInstType_0::SimdShaSigma3            0      0.00%     92.77% # Number of instructions issued per FU type, per thread (Count)
system.cpu1.statIssuedInstType_0::SimdPredAlu            0      0.00%     92.77% # Number of instructions issued per FU type, per thread (Count)
system.cpu1.statIssuedInstType_0::MemRead       783678      4.96%     97.73% # Number of instructions issued per FU type, per thread (Count)
system.cpu1.statIssuedInstType_0::MemWrite       307057      1.94%     99.67% # Number of instructions issued per FU type, per thread (Count)
system.cpu1.statIssuedInstType_0::FloatMemRead        33764      0.21%     99.88% # Number of instructions issued per FU type, per thread (Count)
system.cpu1.statIssuedInstType_0::FloatMemWrite        18257      0.12%    100.00% # Number of instructions issued per FU type, per thread (Count)
system.cpu1.statIssuedInstType_0::IprAccess            0      0.00%    100.00% # Number of instructions issued per FU type, per thread (Count)
system.cpu1.statIssuedInstType_0::InstPrefetch            0      0.00%    100.00% # Number of instructions issued per FU type, per thread (Count)
system.cpu1.statIssuedInstType_0::total      15811275                       # Number of instructions issued per FU type, per thread (Count)
system.cpu1.issueRate                        1.123840                       # Inst issue rate ((Count/Cycle))
system.cpu1.fuBusy                              79999                       # FU busy when requested (Count)
system.cpu1.fuBusyRate                       0.005060                       # FU busy rate (busy events/executed inst) ((Count/Count))
system.cpu1.intInstQueueReads                44468715                       # Number of integer instruction queue reads (Count)
system.cpu1.intInstQueueWrites               17806896                       # Number of integer instruction queue writes (Count)
system.cpu1.intInstQueueWakeupAccesses       15607350                       # Number of integer instruction queue wakeup accesses (Count)
system.cpu1.fpInstQueueReads                   231822                       # Number of floating instruction queue reads (Count)
system.cpu1.fpInstQueueWrites                  175848                       # Number of floating instruction queue writes (Count)
system.cpu1.fpInstQueueWakeupAccesses          110909                       # Number of floating instruction queue wakeup accesses (Count)
system.cpu1.vecInstQueueReads                       0                       # Number of vector instruction queue reads (Count)
system.cpu1.vecInstQueueWrites                      0                       # Number of vector instruction queue writes (Count)
system.cpu1.vecInstQueueWakeupAccesses              0                       # Number of vector instruction queue wakeup accesses (Count)
system.cpu1.intAluAccesses                   15696121                       # Number of integer alu accesses (Count)
system.cpu1.fpAluAccesses                      116906                       # Number of floating point alu accesses (Count)
system.cpu1.vecAluAccesses                          0                       # Number of vector alu accesses (Count)
system.cpu1.numInsts                         15753629                       # Number of executed instructions (Count)
system.cpu1.numLoadInsts                       806042                       # Number of load instructions executed (Count)
system.cpu1.numSquashedInsts                    57643                       # Number of squashed instructions skipped in execute (Count)
system.cpu1.numSwp                                  0                       # Number of swp insts executed (Count)
system.cpu1.numNop                                  0                       # Number of nop insts executed (Count)
system.cpu1.numRefs                           1126906                       # Number of memory reference insts executed (Count)
system.cpu1.numBranches                        970524                       # Number of branches executed (Count)
[...]
system.ruby.network.ext_out_link_utilization      4135732                       (Unspecified)
system.ruby.network.flit_network_latency |103416118500                       |205320525000                       | 28566997000                       (Unspecified)
system.ruby.network.flit_queueing_latency |  2087108500                       |  1929281000                       |   146533000                       (Unspecified)
system.ruby.network.flits_injected       |      980189     23.70%     23.70% |     2862477     69.21%     92.91% |      293066      7.09%    100.00% (Unspecified)
system.ruby.network.flits_injected::total      4135732                       (Unspecified)
system.ruby.network.flits_received       |      980189     23.70%     23.70% |     2862477     69.21%     92.91% |      293066      7.09%    100.00% (Unspecified)
system.ruby.network.flits_received::total      4135732                       (Unspecified)
system.ruby.network.int_link_utilization     12516840                       (Unspecified)
system.ruby.network.packet_network_latency | 77748009500                       | 67964541000                       | 28566997000                       (Unspecified)
system.ruby.network.packet_queueing_latency |  1714810500                       |   513799000                       |   146533000                       (Unspecified)
system.ruby.network.packets_injected     |      800417     42.26%     42.26% |      800417     42.26%     84.53% |      293066     15.47%    100.00% (Unspecified)
system.ruby.network.packets_injected::total      1893900                       (Unspecified)
system.ruby.network.packets_received     |      800417     42.26%     42.26% |      800417     42.26%     84.53% |      293066     15.47%    100.00% (Unspecified)
system.ruby.network.packets_received::total      1893900                       (Unspecified)
system.ruby.network.routers00.Var_1                 0                       (Unspecified)
system.ruby.network.routers00.Var_2                 0                       (Unspecified)
system.ruby.network.routers00.Var_3                 0                       (Unspecified)
system.ruby.network.routers00.all_counts            0                       (Unspecified)
system.ruby.network.routers00.buffer_reads       740212                       (Unspecified)
system.ruby.network.routers00.buffer_writes       740212                       (Unspecified)
system.ruby.network.routers00.crossbar_activity       740212                       (Unspecified)
system.ruby.network.routers00.detour_counts        52768                       (Unspecified)
system.ruby.network.routers00.regular_var            0                       (Unspecified)
system.ruby.network.routers00.risk_counts            0                       (Unspecified)
system.ruby.network.routers00.sw_input_arbiter_activity       745898                       (Unspecified)
system.ruby.network.routers00.sw_output_arbiter_activity       740212                       (Unspecified)
system.ruby.network.routers01.Var_1                 0                       (Unspecified)
system.ruby.network.routers01.Var_2                 0                       (Unspecified)
system.ruby.network.routers01.Var_3                 0                       (Unspecified)
system.ruby.network.routers01.all_counts            0                       (Unspecified)
system.ruby.network.routers01.buffer_reads      1062182                       (Unspecified)
system.ruby.network.routers01.buffer_writes      1062182                       (Unspecified)
system.ruby.network.routers01.crossbar_activity      1062182                       (Unspecified)
system.ruby.network.routers01.detour_counts        52954                       (Unspecified)
system.ruby.network.routers01.regular_var            0                       (Unspecified)
system.ruby.network.routers01.risk_counts            0                       (Unspecified)
system.ruby.network.routers01.sw_input_arbiter_activity      1074325                       (Unspecified)
system.ruby.network.routers01.sw_output_arbiter_activity      1062182                       (Unspecified)
system.ruby.network.routers02.Var_1                 0                       (Unspecified)
system.ruby.network.routers02.Var_2                 0                       (Unspecified)
system.ruby.network.routers02.Var_3                 0                       (Unspecified)
system.ruby.network.routers02.all_counts            0                       (Unspecified)
system.ruby.network.routers02.buffer_reads      1063545                       (Unspecified)
system.ruby.network.routers02.buffer_writes      1063545                       (Unspecified)
system.ruby.network.routers02.crossbar_activity      1063545                       (Unspecified)
system.ruby.network.routers02.detour_counts        52829                       (Unspecified)
system.ruby.network.routers02.regular_var            0                       (Unspecified)
system.ruby.network.routers02.risk_counts            0                       (Unspecified)
system.ruby.network.routers02.sw_input_arbiter_activity      1075914                       (Unspecified)
system.ruby.network.routers02.sw_output_arbiter_activity      1063545                       (Unspecified)
system.ruby.network.routers03.Var_1                 0                       (Unspecified)
system.ruby.network.routers03.Var_2                 0                       (Unspecified)
system.ruby.network.routers03.Var_3                 0                       (Unspecified)
system.ruby.network.routers03.all_counts            0                       (Unspecified)
system.ruby.network.routers03.buffer_reads       730909                       (Unspecified)
system.ruby.network.routers03.buffer_writes       730909                       (Unspecified)
system.ruby.network.routers03.crossbar_activity       730909                       (Unspecified)
system.ruby.network.routers03.detour_counts        52889                       (Unspecified)
system.ruby.network.routers03.regular_var            0                       (Unspecified)
system.ruby.network.routers03.risk_counts            0                       (Unspecified)
system.ruby.network.routers03.sw_input_arbiter_activity       736200                       (Unspecified)
system.ruby.network.routers03.sw_output_arbiter_activity       730909                       (Unspecified)
system.ruby.network.routers04.Var_1                 0                       (Unspecified)
system.ruby.network.routers04.Var_2                 0                       (Unspecified)
system.ruby.network.routers04.Var_3                 0                       (Unspecified)
system.ruby.network.routers04.all_counts            0                       (Unspecified)
system.ruby.network.routers04.buffer_reads      1033221                       (Unspecified)
system.ruby.network.routers04.buffer_writes      1033221                       (Unspecified)
system.ruby.network.routers04.crossbar_activity      1033221                       (Unspecified)
system.ruby.network.routers04.detour_counts        52905                       (Unspecified)
system.ruby.network.routers04.regular_var            0                       (Unspecified)
system.ruby.network.routers04.risk_counts            0                       (Unspecified)
system.ruby.network.routers04.sw_input_arbiter_activity      1044799                       (Unspecified)
system.ruby.network.routers04.sw_output_arbiter_activity      1033221                       (Unspecified)
system.ruby.network.routers05.Var_1                 0                       (Unspecified)
system.ruby.network.routers05.Var_2                 0                       (Unspecified)
system.ruby.network.routers05.Var_3                 0                       (Unspecified)
system.ruby.network.routers05.all_counts            0                       (Unspecified)
system.ruby.network.routers05.buffer_reads      1353994                       (Unspecified)
system.ruby.network.routers05.buffer_writes      1353994                       (Unspecified)
system.ruby.network.routers05.crossbar_activity      1353994                       (Unspecified)
system.ruby.network.routers05.detour_counts        52905                       (Unspecified)
system.ruby.network.routers05.regular_var            0                       (Unspecified)
system.ruby.network.routers05.risk_counts            0                       (Unspecified)
system.ruby.network.routers05.sw_input_arbiter_activity      1371683                       (Unspecified)
system.ruby.network.routers05.sw_output_arbiter_activity      1353994                       (Unspecified)
system.ruby.network.routers06.Var_1                 0                       (Unspecified)
system.ruby.network.routers06.Var_2                 0                       (Unspecified)
system.ruby.network.routers06.Var_3                 0                       (Unspecified)
system.ruby.network.routers06.all_counts            0                       (Unspecified)
system.ruby.network.routers06.buffer_reads      1349539                       (Unspecified)
system.ruby.network.routers06.buffer_writes      1349539                       (Unspecified)
system.ruby.network.routers06.crossbar_activity      1349539                       (Unspecified)
system.ruby.network.routers06.detour_counts        52910                       (Unspecified)
system.ruby.network.routers06.regular_var            0                       (Unspecified)
system.ruby.network.routers06.risk_counts            0                       (Unspecified)
system.ruby.network.routers06.sw_input_arbiter_activity      1367465                       (Unspecified)
system.ruby.network.routers06.sw_output_arbiter_activity      1349539                       (Unspecified)
system.ruby.network.routers07.Var_1                 0                       (Unspecified)
system.ruby.network.routers07.Var_2                 0                       (Unspecified)
system.ruby.network.routers07.Var_3                 0                       (Unspecified)
system.ruby.network.routers07.all_counts            0                       (Unspecified)
system.ruby.network.routers07.buffer_reads      1020633                       (Unspecified)
system.ruby.network.routers07.buffer_writes      1020633                       (Unspecified)
system.ruby.network.routers07.crossbar_activity      1020633                       (Unspecified)
system.ruby.network.routers07.detour_counts        52980                       (Unspecified)
system.ruby.network.routers07.regular_var            0                       (Unspecified)
system.ruby.network.routers07.risk_counts            0                       (Unspecified)
system.ruby.network.routers07.sw_input_arbiter_activity      1031923                       (Unspecified)
system.ruby.network.routers07.sw_output_arbiter_activity      1020633                       (Unspecified)
system.ruby.network.routers08.Var_1                 0                       (Unspecified)
system.ruby.network.routers08.Var_2                 0                       (Unspecified)
system.ruby.network.routers08.Var_3                 0                       (Unspecified)
system.ruby.network.routers08.all_counts            0                       (Unspecified)
system.ruby.network.routers08.buffer_reads      1029730                       (Unspecified)
system.ruby.network.routers08.buffer_writes      1029730                       (Unspecified)
system.ruby.network.routers08.crossbar_activity      1029730                       (Unspecified)
system.ruby.network.routers08.detour_counts        52872                       (Unspecified)
system.ruby.network.routers08.regular_var            0                       (Unspecified)
system.ruby.network.routers08.risk_counts            0                       (Unspecified)
system.ruby.network.routers08.sw_input_arbiter_activity      1041169                       (Unspecified)
system.ruby.network.routers08.sw_output_arbiter_activity      1029730                       (Unspecified)
system.ruby.network.routers09.Var_1                 0                       (Unspecified)
system.ruby.network.routers09.Var_2                 0                       (Unspecified)
system.ruby.network.routers09.Var_3                 0                       (Unspecified)
system.ruby.network.routers09.all_counts            0                       (Unspecified)
system.ruby.network.routers09.buffer_reads      1354978                       (Unspecified)
system.ruby.network.routers09.buffer_writes      1354978                       (Unspecified)
system.ruby.network.routers09.crossbar_activity      1354978                       (Unspecified)
system.ruby.network.routers09.detour_counts        52829                       (Unspecified)
system.ruby.network.routers09.regular_var            0                       (Unspecified)
system.ruby.network.routers09.risk_counts            0                       (Unspecified)
system.ruby.network.routers09.sw_input_arbiter_activity      1373608                       (Unspecified)
system.ruby.network.routers09.sw_output_arbiter_activity      1354978                       (Unspecified)
system.ruby.network.routers10.Var_1                 0                       (Unspecified)
system.ruby.network.routers10.Var_2                 0                       (Unspecified)
system.ruby.network.routers10.Var_3                 0                       (Unspecified)
system.ruby.network.routers10.all_counts            0                       (Unspecified)
system.ruby.network.routers10.buffer_reads      1348513                       (Unspecified)
system.ruby.network.routers10.buffer_writes      1348513                       (Unspecified)
system.ruby.network.routers10.crossbar_activity      1348513                       (Unspecified)
system.ruby.network.routers10.detour_counts        52819                       (Unspecified)
system.ruby.network.routers10.regular_var            0                       (Unspecified)
system.ruby.network.routers10.risk_counts            0                       (Unspecified)
system.ruby.network.routers10.sw_input_arbiter_activity      1366375                       (Unspecified)
system.ruby.network.routers10.sw_output_arbiter_activity      1348513                       (Unspecified)
system.ruby.network.routers11.Var_1                 0                       (Unspecified)
system.ruby.network.routers11.Var_2                 0                       (Unspecified)
system.ruby.network.routers11.Var_3                 0                       (Unspecified)
system.ruby.network.routers11.all_counts            0                       (Unspecified)
system.ruby.network.routers11.buffer_reads      1017972                       (Unspecified)
system.ruby.network.routers11.buffer_writes      1017972                       (Unspecified)
system.ruby.network.routers11.crossbar_activity      1017972                       (Unspecified)
system.ruby.network.routers11.detour_counts        53024                       (Unspecified)
system.ruby.network.routers11.regular_var            0                       (Unspecified)
system.ruby.network.routers11.risk_counts            0                       (Unspecified)
system.ruby.network.routers11.sw_input_arbiter_activity      1029183                       (Unspecified)
system.ruby.network.routers11.sw_output_arbiter_activity      1017972                       (Unspecified)
system.ruby.network.routers12.Var_1                 0                       (Unspecified)
system.ruby.network.routers12.Var_2                 0                       (Unspecified)
system.ruby.network.routers12.Var_3                 0                       (Unspecified)
system.ruby.network.routers12.all_counts            0                       (Unspecified)
system.ruby.network.routers12.buffer_reads       727338                       (Unspecified)
system.ruby.network.routers12.buffer_writes       727338                       (Unspecified)
system.ruby.network.routers12.crossbar_activity       727338                       (Unspecified)
system.ruby.network.routers12.detour_counts        52950                       (Unspecified)
system.ruby.network.routers12.regular_var            0                       (Unspecified)
system.ruby.network.routers12.risk_counts            0                       (Unspecified)
system.ruby.network.routers12.sw_input_arbiter_activity       732756                       (Unspecified)
system.ruby.network.routers12.sw_output_arbiter_activity       727338                       (Unspecified)
system.ruby.network.routers13.Var_1                 0                       (Unspecified)
system.ruby.network.routers13.Var_2                 0                       (Unspecified)
system.ruby.network.routers13.Var_3                 0                       (Unspecified)
system.ruby.network.routers13.all_counts            0                       (Unspecified)
system.ruby.network.routers13.buffer_reads      1050826                       (Unspecified)
system.ruby.network.routers13.buffer_writes      1050826                       (Unspecified)
system.ruby.network.routers13.crossbar_activity      1050826                       (Unspecified)
system.ruby.network.routers13.detour_counts        52838                       (Unspecified)
system.ruby.network.routers13.regular_var            0                       (Unspecified)
system.ruby.network.routers13.risk_counts            0                       (Unspecified)
system.ruby.network.routers13.sw_input_arbiter_activity      1063004                       (Unspecified)
system.ruby.network.routers13.sw_output_arbiter_activity      1050826                       (Unspecified)
system.ruby.network.routers14.Var_1                 0                       (Unspecified)
system.ruby.network.routers14.Var_2                 0                       (Unspecified)
system.ruby.network.routers14.Var_3                 0                       (Unspecified)
system.ruby.network.routers14.all_counts            0                       (Unspecified)
system.ruby.network.routers14.buffer_reads      1045748                       (Unspecified)
system.ruby.network.routers14.buffer_writes      1045748                       (Unspecified)
system.ruby.network.routers14.crossbar_activity      1045748                       (Unspecified)
system.ruby.network.routers14.detour_counts        53042                       (Unspecified)
system.ruby.network.routers14.regular_var            0                       (Unspecified)
system.ruby.network.routers14.risk_counts            0                       (Unspecified)
system.ruby.network.routers14.sw_input_arbiter_activity      1057448                       (Unspecified)
system.ruby.network.routers14.sw_output_arbiter_activity      1045748                       (Unspecified)
system.ruby.network.routers15.Var_1                 0                       (Unspecified)
system.ruby.network.routers15.Var_2                 0                       (Unspecified)
system.ruby.network.routers15.Var_3                 0                       (Unspecified)
system.ruby.network.routers15.all_counts            0                       (Unspecified)
system.ruby.network.routers15.buffer_reads       723232                       (Unspecified)
system.ruby.network.routers15.buffer_writes       723232                       (Unspecified)
system.ruby.network.routers15.crossbar_activity       723232                       (Unspecified)
system.ruby.network.routers15.detour_counts        53021                       (Unspecified)
system.ruby.network.routers15.regular_var            0                       (Unspecified)
system.ruby.network.routers15.risk_counts            0                       (Unspecified)
system.ruby.network.routers15.sw_input_arbiter_activity       728724                       (Unspecified)
system.ruby.network.routers15.sw_output_arbiter_activity       723232                       (Unspecified)

---------- End Simulation Statistics   ----------
