
---------- Begin Simulation Statistics ----------
simSeconds                                   0.007847                       # Number of seconds simulated (Second)
simTicks                                   7846872000                       # Number of ticks simulated (Tick)
finalTick                                  7846872000                       # Number of ticks from beginning of simulation (restored from checkpoints and never reset) (Tick)
simFreq                                  1000000000000                       # The number of ticks per simulated second ((Tick/Second))
hostSeconds                                   2264.58                       # Real time elapsed on the host (Second)
hostTickRate                                  3465048                       # The number of ticks simulated per host second (ticks/s) ((Tick/Second))
hostMemory                                   11461420                       # Number of bytes of host memory used (Byte)
simInsts                                    146673904                       # Number of instructions simulated (Count)
simOps                                      338032064                       # Number of ops (including micro ops) simulated (Count)
hostInstRate                                    64769                       # Simulator instruction rate (inst/s) ((Count/Second))
hostOpRate                                     149269                       # Simulator op (including micro ops) rate (op/s) ((Count/Second))
system.clk_domain.clock                          1000                       # Clock period in ticks (Tick)
system.cpu0.numCycles                        15600774                       # Number of cpu cycles simulated (Cycle)
system.cpu0.numWorkItemsStarted                     0                       # Number of work items this cpu started (Count)
system.cpu0.numWorkItemsCompleted                   0                       # Number of work items this cpu completed (Count)
system.cpu0.instsAdded                       22493021                       # Number of instructions added to the IQ (excludes non-spec) (Count)
system.cpu0.nonSpecInstsAdded                    1100                       # Number of non-speculative instructions added to the IQ (Count)
system.cpu0.instsIssued                      21980729                       # Number of instructions issued (Count)
system.cpu0.squashedInstsIssued                  2964                       # Number of squashed instructions issued (Count)
system.cpu0.squashedInstsExamined             1367117                       # Number of squashed instructions iterated over during squash; mainly for profiling (Count)
system.cpu0.squashedOperandsExamined          3036431                       # Number of squashed operands that are examined and possibly removed from graph (Count)
system.cpu0.squashedNonSpecRemoved                247                       # Number of squashed non-spec instructions that were removed (Count)
system.cpu0.numIssuedDist::samples           14440586                       # Number of insts issued each cycle (Count)
system.cpu0.numIssuedDist::mean              1.522149                       # Number of insts issued each cycle (Count)
system.cpu0.numIssuedDist::stdev             2.003443                       # Number of insts issued each cycle (Count)
system.cpu0.numIssuedDist::underflows               0      0.00%      0.00% # Number of insts issued each cycle (Count)
system.cpu0.numIssuedDist::0                  7811863     54.10%     54.10% # Number of insts issued each cycle (Count)
system.cpu0.numIssuedDist::1                  1120787      7.76%     61.86% # Number of insts issued each cycle (Count)
system.cpu0.numIssuedDist::2                  1034705      7.17%     69.02% # Number of insts issued each cycle (Count)
system.cpu0.numIssuedDist::3                  1739893     12.05%     81.07% # Number of insts issued each cycle (Count)
system.cpu0.numIssuedDist::4                  1158648      8.02%     89.10% # Number of insts issued each cycle (Count)
system.cpu0.numIssuedDist::5                   883895      6.12%     95.22% # Number of insts issued each cycle (Count)
system.cpu0.numIssuedDist::6                   398840      2.76%     97.98% # Number of insts issued each cycle (Count)
system.cpu0.numIssuedDist::7                   211894      1.47%     99.45% # Number of insts issued each cycle (Count)
system.cpu0.numIssuedDist::8                    80061      0.55%    100.00% # Number of insts issued each cycle (Count)
system.cpu0.numIssuedDist::overflows                0      0.00%    100.00% # Number of insts issued each cycle (Count)
system.cpu0.numIssuedDist::min_value                0                       # Number of insts issued each cycle (Count)
system.cpu0.numIssuedDist::max_value                8                       # Number of insts issued each cycle (Count)
system.cpu0.numIssuedDist::total             14440586                       # Number of insts issued each cycle (Count)
system.cpu0.statFuBusy::No_OpClass                  0      0.00%      0.00% # attempts to use FU when none available (Count)
system.cpu0.statFuBusy::IntAlu                  77259     74.56%     74.56% # attempts to use FU when none available (Count)
system.cpu0.statFuBusy::IntMult                     0      0.00%     74.56% # attempts to use FU when none available (Count)
system.cpu0.statFuBusy::IntDiv                      0      0.00%     74.56% # attempts to use FU when none available (Count)
system.cpu0.statFuBusy::FloatAdd                    0      0.00%     74.56% # attempts to use FU when none available (Count)
system.cpu0.statFuBusy::FloatCmp                    0      0.00%     74.56% # attempts to use FU when none available (Count)
system.cpu0.statFuBusy::FloatCvt                    2      0.00%     74.56% # attempts to use FU when none available (Count)
system.cpu0.statFuBusy::FloatMult                   0      0.00%     74.56% # attempts to use FU when none available (Count)
system.cpu0.statFuBusy::FloatMultAcc                0      0.00%     74.56% # attempts to use FU when none available (Count)
system.cpu0.statFuBusy::FloatDiv                    0      0.00%     74.56% # attempts to use FU when none available (Count)
system.cpu0.statFuBusy::FloatMisc                   0      0.00%     74.56% # attempts to use FU when none available (Count)
system.cpu0.statFuBusy::FloatSqrt                   0      0.00%     74.56% # attempts to use FU when none available (Count)
system.cpu0.statFuBusy::SimdAdd                     0      0.00%     74.56% # attempts to use FU when none available (Count)
system.cpu0.statFuBusy::SimdAddAcc                  0      0.00%     74.56% # attempts to use FU when none available (Count)
system.cpu0.statFuBusy::SimdAlu                   124      0.12%     74.68% # attempts to use FU when none available (Count)
system.cpu0.statFuBusy::SimdCmp                     0      0.00%     74.68% # attempts to use FU when none available (Count)
system.cpu0.statFuBusy::SimdCvt                   162      0.16%     74.84% # attempts to use FU when none available (Count)
system.cpu0.statFuBusy::SimdMisc                    0      0.00%     74.84% # attempts to use FU when none available (Count)
system.cpu0.statFuBusy::SimdMult                    0      0.00%     74.84% # attempts to use FU when none available (Count)
system.cpu0.statFuBusy::SimdMultAcc                 0      0.00%     74.84% # attempts to use FU when none available (Count)
system.cpu0.statFuBusy::SimdShift                 204      0.20%     75.03% # attempts to use FU when none available (Count)
system.cpu0.statFuBusy::SimdShiftAcc                0      0.00%     75.03% # attempts to use FU when none available (Count)
system.cpu0.statFuBusy::SimdDiv                     0      0.00%     75.03% # attempts to use FU when none available (Count)
system.cpu0.statFuBusy::SimdSqrt                    0      0.00%     75.03% # attempts to use FU when none available (Count)
system.cpu0.statFuBusy::SimdFloatAdd                0      0.00%     75.03% # attempts to use FU when none available (Count)
system.cpu0.statFuBusy::SimdFloatAlu                0      0.00%     75.03% # attempts to use FU when none available (Count)
system.cpu0.statFuBusy::SimdFloatCmp                0      0.00%     75.03% # attempts to use FU when none available (Count)
system.cpu0.statFuBusy::SimdFloatCvt                0      0.00%     75.03% # attempts to use FU when none available (Count)
system.cpu0.statFuBusy::SimdFloatDiv                0      0.00%     75.03% # attempts to use FU when none available (Count)
system.cpu0.statFuBusy::SimdFloatMisc               0      0.00%     75.03% # attempts to use FU when none available (Count)
system.cpu0.statFuBusy::SimdFloatMult               0      0.00%     75.03% # attempts to use FU when none available (Count)
system.cpu0.statFuBusy::SimdFloatMultAcc            0      0.00%     75.03% # attempts to use FU when none available (Count)
system.cpu0.statFuBusy::SimdFloatSqrt               0      0.00%     75.03% # attempts to use FU when none available (Count)
system.cpu0.statFuBusy::SimdReduceAdd               0      0.00%     75.03% # attempts to use FU when none available (Count)
system.cpu0.statFuBusy::SimdReduceAlu               0      0.00%     75.03% # attempts to use FU when none available (Count)
system.cpu0.statFuBusy::SimdReduceCmp               0      0.00%     75.03% # attempts to use FU when none available (Count)
system.cpu0.statFuBusy::SimdFloatReduceAdd            0      0.00%     75.03% # attempts to use FU when none available (Count)
system.cpu0.statFuBusy::SimdFloatReduceCmp            0      0.00%     75.03% # attempts to use FU when none available (Count)
system.cpu0.statFuBusy::SimdAes                     0      0.00%     75.03% # attempts to use FU when none available (Count)
system.cpu0.statFuBusy::SimdAesMix                  0      0.00%     75.03% # attempts to use FU when none available (Count)
system.cpu0.statFuBusy::SimdSha1Hash                0      0.00%     75.03% # attempts to use FU when none available (Count)
system.cpu0.statFuBusy::SimdSha1Hash2               0      0.00%     75.03% # attempts to use FU when none available (Count)
system.cpu0.statFuBusy::SimdSha256Hash              0      0.00%     75.03% # attempts to use FU when none available (Count)
system.cpu0.statFuBusy::SimdSha256Hash2             0      0.00%     75.03% # attempts to use FU when none available (Count)
system.cpu0.statFuBusy::SimdShaSigma2               0      0.00%     75.03% # attempts to use FU when none available (Count)
system.cpu0.statFuBusy::SimdShaSigma3               0      0.00%     75.03% # attempts to use FU when none available (Count)
system.cpu0.statFuBusy::SimdPredAlu                 0      0.00%     75.03% # attempts to use FU when none available (Count)
system.cpu0.statFuBusy::MemRead                 12086     11.66%     86.70% # attempts to use FU when none available (Count)
system.cpu0.statFuBusy::MemWrite                11918     11.50%     98.20% # attempts to use FU when none available (Count)
system.cpu0.statFuBusy::FloatMemRead             1407      1.36%     99.56% # attempts to use FU when none available (Count)
system.cpu0.statFuBusy::FloatMemWrite             458      0.44%    100.00% # attempts to use FU when none available (Count)
system.cpu0.statFuBusy::IprAccess                   0      0.00%    100.00% # attempts to use FU when none available (Count)
system.cpu0.statFuBusy::InstPrefetch                0      0.00%    100.00% # attempts to use FU when none available (Count)
system.cpu0.statIssuedInstType_0::No_OpClass        34921      0.16%      0.16% # Number of instructions issued per FU type, per thread (Count)
system.cpu0.statIssuedInstType_0::IntAlu     17320009     78.80%     78.96% # Number of instructions issued per FU type, per thread (Count)
system.cpu0.statIssuedInstType_0::IntMult           35      0.00%     78.96% # Number of instructions issued per FU type, per thread (Count)
system.cpu0.statIssuedInstType_0::IntDiv        38351      0.17%     79.13% # Number of instructions issued per FU type, per thread (Count)
system.cpu0.statIssuedInstType_0::FloatAdd         4383      0.02%     79.15% # Number of instructions issued per FU type, per thread (Count)
system.cpu0.statIssuedInstType_0::FloatCmp            0      0.00%     79.15% # Number of instructions issued per FU type, per thread (Count)
system.cpu0.statIssuedInstType_0::FloatCvt         1702      0.01%     79.16% # Number of instructions issued per FU type, per thread (Count)
system.cpu0.statIssuedInstType_0::FloatMult            0      0.00%     79.16% # Number of instructions issued per FU type, per thread (Count)
system.cpu0.statIssuedInstType_0::FloatMultAcc            0      0.00%     79.16% # Number of instructions issued per FU type, per thread (Count)
system.cpu0.statIssuedInstType_0::FloatDiv            0      0.00%     79.16% # Number of instructions issued per FU type, per thread (Count)
system.cpu0.statIssuedInstType_0::FloatMisc            0      0.00%     79.16% # Number of instructions issued per FU type, per thread (Count)
system.cpu0.statIssuedInstType_0::FloatSqrt            0      0.00%     79.16% # Number of instructions issued per FU type, per thread (Count)
system.cpu0.statIssuedInstType_0::SimdAdd         8511      0.04%     79.20% # Number of instructions issued per FU type, per thread (Count)
system.cpu0.statIssuedInstType_0::SimdAddAcc            0      0.00%     79.20% # Number of instructions issued per FU type, per thread (Count)
system.cpu0.statIssuedInstType_0::SimdAlu        17260      0.08%     79.27% # Number of instructions issued per FU type, per thread (Count)
system.cpu0.statIssuedInstType_0::SimdCmp            0      0.00%     79.27% # Number of instructions issued per FU type, per thread (Count)
system.cpu0.statIssuedInstType_0::SimdCvt        18879      0.09%     79.36% # Number of instructions issued per FU type, per thread (Count)
system.cpu0.statIssuedInstType_0::SimdMisc         8977      0.04%     79.40% # Number of instructions issued per FU type, per thread (Count)
system.cpu0.statIssuedInstType_0::SimdMult            0      0.00%     79.40% # Number of instructions issued per FU type, per thread (Count)
system.cpu0.statIssuedInstType_0::SimdMultAcc            0      0.00%     79.40% # Number of instructions issued per FU type, per thread (Count)
system.cpu0.statIssuedInstType_0::SimdShift         3010      0.01%     79.42% # Number of instructions issued per FU type, per thread (Count)
system.cpu0.statIssuedInstType_0::SimdShiftAcc            0      0.00%     79.42% # Number of instructions issued per FU type, per thread (Count)
system.cpu0.statIssuedInstType_0::SimdDiv            0      0.00%     79.42% # Number of instructions issued per FU type, per thread (Count)
system.cpu0.statIssuedInstType_0::SimdSqrt            0      0.00%     79.42% # Number of instructions issued per FU type, per thread (Count)
system.cpu0.statIssuedInstType_0::SimdFloatAdd            0      0.00%     79.42% # Number of instructions issued per FU type, per thread (Count)
system.cpu0.statIssuedInstType_0::SimdFloatAlu            0      0.00%     79.42% # Number of instructions issued per FU type, per thread (Count)
system.cpu0.statIssuedInstType_0::SimdFloatCmp            0      0.00%     79.42% # Number of instructions issued per FU type, per thread (Count)
system.cpu0.statIssuedInstType_0::SimdFloatCvt            0      0.00%     79.42% # Number of instructions issued per FU type, per thread (Count)
system.cpu0.statIssuedInstType_0::SimdFloatDiv            0      0.00%     79.42% # Number of instructions issued per FU type, per thread (Count)
system.cpu0.statIssuedInstType_0::SimdFloatMisc            0      0.00%     79.42% # Number of instructions issued per FU type, per thread (Count)
system.cpu0.statIssuedInstType_0::SimdFloatMult            0      0.00%     79.42% # Number of instructions issued per FU type, per thread (Count)
system.cpu0.statIssuedInstType_0::SimdFloatMultAcc            0      0.00%     79.42% # Number of instructions issued per FU type, per thread (Count)
system.cpu0.statIssuedInstType_0::SimdFloatSqrt            0      0.00%     79.42% # Number of instructions issued per FU type, per thread (Count)
system.cpu0.statIssuedInstType_0::SimdReduceAdd            0      0.00%     79.42% # Number of instructions issued per FU type, per thread (Count)
system.cpu0.statIssuedInstType_0::SimdReduceAlu            0      0.00%     79.42% # Number of instructions issued per FU type, per thread (Count)
system.cpu0.statIssuedInstType_0::SimdReduceCmp            0      0.00%     79.42% # Number of instructions issued per FU type, per thread (Count)
system.cpu0.statIssuedInstType_0::SimdFloatReduceAdd            0      0.00%     79.42% # Number of instructions issued per FU type, per thread (Count)
system.cpu0.statIssuedInstType_0::SimdFloatReduceCmp            0      0.00%     79.42% # Number of instructions issued per FU type, per thread (Count)
system.cpu0.statIssuedInstType_0::SimdAes            0      0.00%     79.42% # Number of instructions issued per FU type, per thread (Count)
system.cpu0.statIssuedInstType_0::SimdAesMix            0      0.00%     79.42% # Number of instructions issued per FU type, per thread (Count)
system.cpu0.statIssuedInstType_0::SimdSha1Hash            0      0.00%     79.42% # Number of instructions issued per FU type, per thread (Count)
system.cpu0.statIssuedInstType_0::SimdSha1Hash2            0      0.00%     79.42% # Number of instructions issued per FU type, per thread (Count)
system.cpu0.statIssuedInstType_0::SimdSha256Hash            0      0.00%     79.42% # Number of instructions issued per FU type, per thread (Count)
system.cpu0.statIssuedInstType_0::SimdSha256Hash2            0      0.00%     79.42% # Number of instructions issued per FU type, per thread (Count)
system.cpu0.statIssuedInstType_0::SimdShaSigma2            0      0.00%     79.42% # Number of instructions issued per FU type, per thread (Count)
system.cpu0.statIssuedInstType_0::SimdShaSigma3            0      0.00%     79.42% # Number of instructions issued per FU type, per thread (Count)
system.cpu0.statIssuedInstType_0::SimdPredAlu            0      0.00%     79.42% # Number of instructions issued per FU type, per thread (Count)
system.cpu0.statIssuedInstType_0::MemRead      2780231     12.65%     92.06% # Number of instructions issued per FU type, per thread (Count)
system.cpu0.statIssuedInstType_0::MemWrite      1692459      7.70%     99.76% # Number of instructions issued per FU type, per thread (Count)
system.cpu0.statIssuedInstType_0::FloatMemRead        33816      0.15%     99.92% # Number of instructions issued per FU type, per thread (Count)
system.cpu0.statIssuedInstType_0::FloatMemWrite        18185      0.08%    100.00% # Number of instructions issued per FU type, per thread (Count)
system.cpu0.statIssuedInstType_0::IprAccess            0      0.00%    100.00% # Number of instructions issued per FU type, per thread (Count)
system.cpu0.statIssuedInstType_0::InstPrefetch            0      0.00%    100.00% # Number of instructions issued per FU type, per thread (Count)
system.cpu0.statIssuedInstType_0::total      21980729                       # Number of instructions issued per FU type, per thread (Count)
system.cpu0.issueRate                        1.408951                       # Inst issue rate ((Count/Cycle))
system.cpu0.fuBusy                             103620                       # FU busy when requested (Count)
system.cpu0.fuBusyRate                       0.004714                       # FU busy rate (busy events/executed inst) ((Count/Count))
system.cpu0.intInstQueueReads                58274211                       # Number of integer instruction queue reads (Count)
system.cpu0.intInstQueueWrites               23682830                       # Number of integer instruction queue writes (Count)
system.cpu0.intInstQueueWakeupAccesses       21767777                       # Number of integer instruction queue wakeup accesses (Count)
system.cpu0.fpInstQueueReads                   234417                       # Number of floating instruction queue reads (Count)
system.cpu0.fpInstQueueWrites                  178681                       # Number of floating instruction queue writes (Count)
system.cpu0.fpInstQueueWakeupAccesses          112202                       # Number of floating instruction queue wakeup accesses (Count)
system.cpu0.vecInstQueueReads                       0                       # Number of vector instruction queue reads (Count)
system.cpu0.vecInstQueueWrites                      0                       # Number of vector instruction queue writes (Count)
system.cpu0.vecInstQueueWakeupAccesses              0                       # Number of vector instruction queue wakeup accesses (Count)
system.cpu0.intAluAccesses                   21931190                       # Number of integer alu accesses (Count)
system.cpu0.fpAluAccesses                      118238                       # Number of floating point alu accesses (Count)
system.cpu0.vecAluAccesses                          0                       # Number of vector alu accesses (Count)
system.cpu0.numInsts                         21920538                       # Number of executed instructions (Count)
system.cpu0.numLoadInsts                      2802068                       # Number of load instructions executed (Count)
system.cpu0.numSquashedInsts                    60191                       # Number of squashed instructions skipped in execute (Count)
system.cpu0.numSwp                                  0                       # Number of swp insts executed (Count)
system.cpu0.numNop                                  0                       # Number of nop insts executed (Count)
system.cpu0.numRefs                           4510545                       # Number of memory reference insts executed (Count)
system.cpu0.numBranches                       1798277                       # Number of branches executed (Count)
system.cpu0.numStoreInsts                     1708477                       # Number of stores executed (Count)
system.cpu0.numRate                          1.405093                       # Inst execution rate ((Count/Cycle))
system.cpu0.timesIdled                           2393                       # Number of times that the entire CPU went into an idle state and unscheduled itself (Count)
system.cpu0.idleCycles                        1160188                       # Total number of cycles that the CPU has spent unscheduled due to idling (Cycle)
system.cpu0.committedInsts                    9167119                       # Number of Instructions Simulated (Count)
system.cpu0.committedOps                     21127004                       # Number of Ops (including micro ops) Simulated (Count)
system.cpu0.cpi                              1.701819                       # CPI: Cycles Per Instruction ((Cycle/Count))
system.cpu0.totalCpi                         1.701819                       # CPI: Total CPI of All Threads ((Cycle/Count))
system.cpu0.ipc                              0.587607                       # IPC: Instructions Per Cycle ((Count/Cycle))
system.cpu0.totalIpc                         0.587607                       # IPC: Total IPC of All Threads ((Count/Cycle))
system.cpu0.intRegfileReads                  34556812                       # Number of integer regfile reads (Count)
system.cpu0.intRegfileWrites                 17729017                       # Number of integer regfile writes (Count)
system.cpu0.fpRegfileReads                     152914                       # Number of floating regfile reads (Count)
system.cpu0.fpRegfileWrites                     84724                       # Number of floating regfile writes (Count)
system.cpu0.ccRegfileReads                   14668742                       # number of cc regfile reads (Count)
system.cpu0.ccRegfileWrites                  10378013                       # number of cc regfile writes (Count)
system.cpu0.miscRegfileReads                  5814196                       # number of misc regfile reads (Count)
system.cpu0.miscRegfileWrites                     846                       # number of misc regfile writes (Count)
system.cpu0.MemDepUnit__0.insertedLoads       2863805                       # Number of loads inserted to the mem dependence unit. (Count)
system.cpu0.MemDepUnit__0.insertedStores      1740186                       # Number of stores inserted to the mem dependence unit. (Count)
system.cpu0.MemDepUnit__0.conflictingLoads       388519                       # Number of conflicting loads. (Count)
system.cpu0.MemDepUnit__0.conflictingStores       201792                       # Number of conflicting stores. (Count)
system.cpu0.MemDepUnit__1.insertedLoads             0                       # Number of loads inserted to the mem dependence unit. (Count)
system.cpu0.MemDepUnit__1.insertedStores            0                       # Number of stores inserted to the mem dependence unit. (Count)
system.cpu0.MemDepUnit__1.conflictingLoads            0                       # Number of conflicting loads. (Count)
system.cpu0.MemDepUnit__1.conflictingStores            0                       # Number of conflicting stores. (Count)
system.cpu0.MemDepUnit__2.insertedLoads             0                       # Number of loads inserted to the mem dependence unit. (Count)
system.cpu0.MemDepUnit__2.insertedStores            0                       # Number of stores inserted to the mem dependence unit. (Count)
system.cpu0.MemDepUnit__2.conflictingLoads            0                       # Number of conflicting loads. (Count)
system.cpu0.MemDepUnit__2.conflictingStores            0                       # Number of conflicting stores. (Count)
system.cpu0.MemDepUnit__3.insertedLoads             0                       # Number of loads inserted to the mem dependence unit. (Count)
system.cpu0.MemDepUnit__3.insertedStores            0                       # Number of stores inserted to the mem dependence unit. (Count)
system.cpu0.MemDepUnit__3.conflictingLoads            0                       # Number of conflicting loads. (Count)
system.cpu0.MemDepUnit__3.conflictingStores            0                       # Number of conflicting stores. (Count)
system.cpu0.branchPred.lookups                1980551                       # Number of BP lookups (Count)
system.cpu0.branchPred.condPredicted          1912851                       # Number of conditional branches predicted (Count)
system.cpu0.branchPred.condIncorrect            44708                       # Number of conditional branches incorrect (Count)
system.cpu0.branchPred.BTBLookups             1729382                       # Number of BTB lookups (Count)
system.cpu0.branchPred.BTBUpdates               19020                       # Number of BTB updates (Count)
system.cpu0.branchPred.BTBHits                1725207                       # Number of BTB hits (Count)
system.cpu0.branchPred.BTBHitRatio           0.997586                       # BTB Hit Ratio (Ratio)
system.cpu0.branchPred.RASUsed                  15795                       # Number of times the RAS was used to get a target. (Count)
system.cpu0.branchPred.RASIncorrect                 9                       # Number of incorrect RAS predictions. (Count)
system.cpu0.branchPred.indirectLookups          10116                       # Number of indirect predictor lookups. (Count)
system.cpu0.branchPred.indirectHits              5312                       # Number of indirect target hits. (Count)
system.cpu0.branchPred.indirectMisses            4804                       # Number of indirect misses. (Count)
system.cpu0.branchPred.indirectMispredicted         1258                       # Number of mispredicted indirect branches. (Count)
system.cpu0.commit.commitSquashedInsts        1358008                       # The number of squashed insts skipped by commit (Count)
system.cpu0.commit.commitNonSpecStalls            853                       # The number of times commit has been forced to stall to communicate backwards (Count)
system.cpu0.commit.branchMispredicts            37822                       # The number of times a branch was mispredicted (Count)
system.cpu0.commit.numCommittedDist::samples     14240998                       # Number of insts commited each cycle (Count)
system.cpu0.commit.numCommittedDist::mean     1.483534                       # Number of insts commited each cycle (Count)
system.cpu0.commit.numCommittedDist::stdev     2.370535                       # Number of insts commited each cycle (Count)
system.cpu0.commit.numCommittedDist::underflows            0      0.00%      0.00% # Number of insts commited each cycle (Count)
system.cpu0.commit.numCommittedDist::0        8302750     58.30%     58.30% # Number of insts commited each cycle (Count)
system.cpu0.commit.numCommittedDist::1        2007597     14.10%     72.40% # Number of insts commited each cycle (Count)
system.cpu0.commit.numCommittedDist::2         663805      4.66%     77.06% # Number of insts commited each cycle (Count)
system.cpu0.commit.numCommittedDist::3         479533      3.37%     80.43% # Number of insts commited each cycle (Count)
system.cpu0.commit.numCommittedDist::4         706862      4.96%     85.39% # Number of insts commited each cycle (Count)
system.cpu0.commit.numCommittedDist::5         556199      3.91%     89.30% # Number of insts commited each cycle (Count)
system.cpu0.commit.numCommittedDist::6         681203      4.78%     94.08% # Number of insts commited each cycle (Count)
system.cpu0.commit.numCommittedDist::7          86855      0.61%     94.69% # Number of insts commited each cycle (Count)
system.cpu0.commit.numCommittedDist::8         756194      5.31%    100.00% # Number of insts commited each cycle (Count)
system.cpu0.commit.numCommittedDist::overflows            0      0.00%    100.00% # Number of insts commited each cycle (Count)
system.cpu0.commit.numCommittedDist::min_value            0                       # Number of insts commited each cycle (Count)
system.cpu0.commit.numCommittedDist::max_value            8                       # Number of insts commited each cycle (Count)
system.cpu0.commit.numCommittedDist::total     14240998                       # Number of insts commited each cycle (Count)
system.cpu0.commit.instsCommitted             9167119                       # Number of instructions committed (Count)
system.cpu0.commit.opsCommitted              21127004                       # Number of ops (including micro ops) committed (Count)
system.cpu0.commit.memRefs                    4359903                       # Number of memory references committed (Count)
system.cpu0.commit.loads                      2677397                       # Number of loads committed (Count)
system.cpu0.commit.amos                             0                       # Number of atomic instructions committed (Count)
system.cpu0.commit.membars                          2                       # Number of memory barriers committed (Count)
system.cpu0.commit.branches                   1753447                       # Number of branches committed (Count)
system.cpu0.commit.vectorInstructions               0                       # Number of committed Vector instructions. (Count)
system.cpu0.commit.floating                     82163                       # Number of committed floating point instructions. (Count)
system.cpu0.commit.integer                   19890631                       # Number of committed integer instructions. (Count)
system.cpu0.commit.functionCalls                11860                       # Number of function calls committed. (Count)
system.cpu0.commit.committedInstType_0::No_OpClass        18973      0.09%      0.09% # Class of committed instruction (Count)
system.cpu0.commit.committedInstType_0::IntAlu     16666276     78.89%     78.98% # Class of committed instruction (Count)
system.cpu0.commit.committedInstType_0::IntMult           29      0.00%     78.98% # Class of committed instruction (Count)
system.cpu0.commit.committedInstType_0::IntDiv        35987      0.17%     79.15% # Class of committed instruction (Count)
system.cpu0.commit.committedInstType_0::FloatAdd         3202      0.02%     79.16% # Class of committed instruction (Count)
system.cpu0.commit.committedInstType_0::FloatCmp            0      0.00%     79.16% # Class of committed instruction (Count)
system.cpu0.commit.committedInstType_0::FloatCvt         1504      0.01%     79.17% # Class of committed instruction (Count)
system.cpu0.commit.committedInstType_0::FloatMult            0      0.00%     79.17% # Class of committed instruction (Count)
system.cpu0.commit.committedInstType_0::FloatMultAcc            0      0.00%     79.17% # Class of committed instruction (Count)
system.cpu0.commit.committedInstType_0::FloatDiv            0      0.00%     79.17% # Class of committed instruction (Count)
system.cpu0.commit.committedInstType_0::FloatMisc            0      0.00%     79.17% # Class of committed instruction (Count)
system.cpu0.commit.committedInstType_0::FloatSqrt            0      0.00%     79.17% # Class of committed instruction (Count)
system.cpu0.commit.committedInstType_0::SimdAdd         6750      0.03%     79.20% # Class of committed instruction (Count)
system.cpu0.commit.committedInstType_0::SimdAddAcc            0      0.00%     79.20% # Class of committed instruction (Count)
system.cpu0.commit.committedInstType_0::SimdAlu        12218      0.06%     79.26% # Class of committed instruction (Count)
system.cpu0.commit.committedInstType_0::SimdCmp            0      0.00%     79.26% # Class of committed instruction (Count)
system.cpu0.commit.committedInstType_0::SimdCvt        13196      0.06%     79.32% # Class of committed instruction (Count)
system.cpu0.commit.committedInstType_0::SimdMisc         7208      0.03%     79.36% # Class of committed instruction (Count)
system.cpu0.commit.committedInstType_0::SimdMult            0      0.00%     79.36% # Class of committed instruction (Count)
system.cpu0.commit.committedInstType_0::SimdMultAcc            0      0.00%     79.36% # Class of committed instruction (Count)
system.cpu0.commit.committedInstType_0::SimdShift         1758      0.01%     79.36% # Class of committed instruction (Count)
system.cpu0.commit.committedInstType_0::SimdShiftAcc            0      0.00%     79.36% # Class of committed instruction (Count)
system.cpu0.commit.committedInstType_0::SimdDiv            0      0.00%     79.36% # Class of committed instruction (Count)
system.cpu0.commit.committedInstType_0::SimdSqrt            0      0.00%     79.36% # Class of committed instruction (Count)
system.cpu0.commit.committedInstType_0::SimdFloatAdd            0      0.00%     79.36% # Class of committed instruction (Count)
system.cpu0.commit.committedInstType_0::SimdFloatAlu            0      0.00%     79.36% # Class of committed instruction (Count)
system.cpu0.commit.committedInstType_0::SimdFloatCmp            0      0.00%     79.36% # Class of committed instruction (Count)
system.cpu0.commit.committedInstType_0::SimdFloatCvt            0      0.00%     79.36% # Class of committed instruction (Count)
system.cpu0.commit.committedInstType_0::SimdFloatDiv            0      0.00%     79.36% # Class of committed instruction (Count)
system.cpu0.commit.committedInstType_0::SimdFloatMisc            0      0.00%     79.36% # Class of committed instruction (Count)
system.cpu0.commit.committedInstType_0::SimdFloatMult            0      0.00%     79.36% # Class of committed instruction (Count)
system.cpu0.commit.committedInstType_0::SimdFloatMultAcc            0      0.00%     79.36% # Class of committed instruction (Count)
system.cpu0.commit.committedInstType_0::SimdFloatSqrt            0      0.00%     79.36% # Class of committed instruction (Count)
system.cpu0.commit.committedInstType_0::SimdReduceAdd            0      0.00%     79.36% # Class of committed instruction (Count)
system.cpu0.commit.committedInstType_0::SimdReduceAlu            0      0.00%     79.36% # Class of committed instruction (Count)
system.cpu0.commit.committedInstType_0::SimdReduceCmp            0      0.00%     79.36% # Class of committed instruction (Count)
system.cpu0.commit.committedInstType_0::SimdFloatReduceAdd            0      0.00%     79.36% # Class of committed instruction (Count)
system.cpu0.commit.committedInstType_0::SimdFloatReduceCmp            0      0.00%     79.36% # Class of committed instruction (Count)
system.cpu0.commit.committedInstType_0::SimdAes            0      0.00%     79.36% # Class of committed instruction (Count)
system.cpu0.commit.committedInstType_0::SimdAesMix            0      0.00%     79.36% # Class of committed instruction (Count)
system.cpu0.commit.committedInstType_0::SimdSha1Hash            0      0.00%     79.36% # Class of committed instruction (Count)
system.cpu0.commit.committedInstType_0::SimdSha1Hash2            0      0.00%     79.36% # Class of committed instruction (Count)
system.cpu0.commit.committedInstType_0::SimdSha256Hash            0      0.00%     79.36% # Class of committed instruction (Count)
system.cpu0.commit.committedInstType_0::SimdSha256Hash2            0      0.00%     79.36% # Class of committed instruction (Count)
system.cpu0.commit.committedInstType_0::SimdShaSigma2            0      0.00%     79.36% # Class of committed instruction (Count)
system.cpu0.commit.committedInstType_0::SimdShaSigma3            0      0.00%     79.36% # Class of committed instruction (Count)
system.cpu0.commit.committedInstType_0::SimdPredAlu            0      0.00%     79.36% # Class of committed instruction (Count)
system.cpu0.commit.committedInstType_0::MemRead      2656064     12.57%     91.94% # Class of committed instruction (Count)
system.cpu0.commit.committedInstType_0::MemWrite      1668412      7.90%     99.83% # Class of committed instruction (Count)
system.cpu0.commit.committedInstType_0::FloatMemRead        21333      0.10%     99.93% # Class of committed instruction (Count)
system.cpu0.commit.committedInstType_0::FloatMemWrite        14094      0.07%    100.00% # Class of committed instruction (Count)
system.cpu0.commit.committedInstType_0::IprAccess            0      0.00%    100.00% # Class of committed instruction (Count)
system.cpu0.commit.committedInstType_0::InstPrefetch            0      0.00%    100.00% # Class of committed instruction (Count)
system.cpu0.commit.committedInstType_0::total     21127004                       # Class of committed instruction (Count)
system.cpu0.commit.commitEligibleSamples       756194                       # number cycles where commit BW limit reached (Cycle)
system.cpu0.decode.idleCycles                 1247534                       # Number of cycles decode is idle (Cycle)
system.cpu0.decode.blockedCycles             10086850                       # Number of cycles decode is blocked (Cycle)
system.cpu0.decode.runCycles                  1602823                       # Number of cycles decode is running (Cycle)
system.cpu0.decode.unblockCycles              1464720                       # Number of cycles decode is unblocking (Cycle)
system.cpu0.decode.squashCycles                 38659                       # Number of cycles decode is squashing (Cycle)
system.cpu0.decode.branchResolved             1665878                       # Number of times decode resolved a branch (Count)
system.cpu0.decode.branchMispred                 9425                       # Number of times decode detected a branch misprediction (Count)
system.cpu0.decode.decodedInsts              22918444                       # Number of instructions handled by decode (Count)
system.cpu0.decode.squashedInsts                38582                       # Number of squashed instructions handled by decode (Count)
system.cpu0.fetch.icacheStallCycles           1075657                       # Number of cycles fetch is stalled on an Icache miss (Cycle)
system.cpu0.fetch.insts                      10502098                       # Number of instructions fetch has processed (Count)
system.cpu0.fetch.branches                    1980551                       # Number of branches that fetch encountered (Count)
system.cpu0.fetch.predictedBranches           1746314                       # Number of branches that fetch has predicted taken (Count)
system.cpu0.fetch.cycles                     13082934                       # Number of cycles fetch has run and was not squashing or blocked (Cycle)
system.cpu0.fetch.squashCycles                  96114                       # Number of cycles fetch has spent squashing (Cycle)
system.cpu0.fetch.miscStallCycles               13709                       # Number of cycles fetch has spent waiting on interrupts, or bad addresses, or out of MSHRs (Cycle)
system.cpu0.fetch.pendingTrapStallCycles        16331                       # Number of stall cycles due to pending traps (Cycle)
system.cpu0.fetch.icacheWaitRetryStallCycles       203898                       # Number of stall cycles due to full MSHR (Cycle)
system.cpu0.fetch.cacheLines                   871759                       # Number of cache lines fetched (Count)
system.cpu0.fetch.icacheSquashes                 9115                       # Number of outstanding Icache misses that were squashed (Count)
system.cpu0.fetch.nisnDist::samples          14440586                       # Number of instructions fetched each cycle (Total) (Count)
system.cpu0.fetch.nisnDist::mean             1.644277                       # Number of instructions fetched each cycle (Total) (Count)
system.cpu0.fetch.nisnDist::stdev            3.071053                       # Number of instructions fetched each cycle (Total) (Count)
system.cpu0.fetch.nisnDist::underflows              0      0.00%      0.00% # Number of instructions fetched each cycle (Total) (Count)
system.cpu0.fetch.nisnDist::0                10879040     75.34%     75.34% # Number of instructions fetched each cycle (Total) (Count)
system.cpu0.fetch.nisnDist::1                  198961      1.38%     76.71% # Number of instructions fetched each cycle (Total) (Count)
system.cpu0.fetch.nisnDist::2                  103730      0.72%     77.43% # Number of instructions fetched each cycle (Total) (Count)
system.cpu0.fetch.nisnDist::3                  142322      0.99%     78.42% # Number of instructions fetched each cycle (Total) (Count)
system.cpu0.fetch.nisnDist::4                  229638      1.59%     80.01% # Number of instructions fetched each cycle (Total) (Count)
system.cpu0.fetch.nisnDist::5                  160908      1.11%     81.12% # Number of instructions fetched each cycle (Total) (Count)
system.cpu0.fetch.nisnDist::6                  241317      1.67%     82.79% # Number of instructions fetched each cycle (Total) (Count)
system.cpu0.fetch.nisnDist::7                  137421      0.95%     83.75% # Number of instructions fetched each cycle (Total) (Count)
system.cpu0.fetch.nisnDist::8                 2347249     16.25%    100.00% # Number of instructions fetched each cycle (Total) (Count)
system.cpu0.fetch.nisnDist::overflows               0      0.00%    100.00% # Number of instructions fetched each cycle (Total) (Count)
system.cpu0.fetch.nisnDist::min_value               0                       # Number of instructions fetched each cycle (Total) (Count)
system.cpu0.fetch.nisnDist::max_value               8                       # Number of instructions fetched each cycle (Total) (Count)
system.cpu0.fetch.nisnDist::total            14440586                       # Number of instructions fetched each cycle (Total) (Count)
system.cpu0.fetch.branchRate                 0.126952                       # Number of branch fetches per cycle (Ratio)
system.cpu0.fetch.rate                       0.673178                       # Number of inst fetches per cycle ((Count/Cycle))
system.cpu0.iew.idleCycles                          0                       # Number of cycles IEW is idle (Cycle)
system.cpu0.iew.squashCycles                    38659                       # Number of cycles IEW is squashing (Cycle)
system.cpu0.iew.blockCycles                   4973863                       # Number of cycles IEW is blocking (Cycle)
system.cpu0.iew.unblockCycles                  156218                       # Number of cycles IEW is unblocking (Cycle)
system.cpu0.iew.dispatchedInsts              22494121                       # Number of instructions dispatched to IQ (Count)
system.cpu0.iew.dispSquashedInsts               11363                       # Number of squashed instructions skipped by dispatch (Count)
system.cpu0.iew.dispLoadInsts                 2863805                       # Number of dispatched load instructions (Count)
system.cpu0.iew.dispStoreInsts                1740186                       # Number of dispatched store instructions (Count)
system.cpu0.iew.dispNonSpecInsts                  900                       # Number of dispatched non-speculative instructions (Count)
system.cpu0.iew.iqFullEvents                    13501                       # Number of times the IQ has become full, causing a stall (Count)
system.cpu0.iew.lsqFullEvents                  137539                       # Number of times the LSQ has become full, causing a stall (Count)
system.cpu0.iew.memOrderViolationEvents           285                       # Number of memory order violations (Count)
system.cpu0.iew.predictedTakenIncorrect         25090                       # Number of branches that were predicted taken incorrectly (Count)
system.cpu0.iew.predictedNotTakenIncorrect        14976                       # Number of branches that were predicted not taken incorrectly (Count)
system.cpu0.iew.branchMispredicts               40066                       # Number of branch mispredicts detected at execute (Count)
system.cpu0.iew.instsToCommit                21893850                       # Cumulative count of insts sent to commit (Count)
system.cpu0.iew.writebackCount               21879979                       # Cumulative count of insts written-back (Count)
system.cpu0.iew.producerInst                 16651331                       # Number of instructions producing a value (Count)
system.cpu0.iew.consumerInst                 30582890                       # Number of instructions consuming a value (Count)
system.cpu0.iew.wbRate                       1.402493                       # Insts written-back per cycle ((Count/Cycle))
system.cpu0.iew.wbFanout                     0.544466                       # Average fanout of values written-back ((Count/Count))
system.cpu0.interrupts.clk_domain.clock          8000                       # Clock period in ticks (Tick)
system.cpu0.lsq0.forwLoads                     486048                       # Number of loads that had data forwarded from stores (Count)
system.cpu0.lsq0.squashedLoads                 186408                       # Number of loads squashed (Count)
system.cpu0.lsq0.ignoredResponses                 102                       # Number of memory responses ignored because the instruction is squashed (Count)
system.cpu0.lsq0.memOrderViolation                285                       # Number of memory ordering violations (Count)
system.cpu0.lsq0.squashedStores                 57680                       # Number of stores squashed (Count)
system.cpu0.lsq0.rescheduledLoads                2336                       # Number of loads that were rescheduled (Count)
system.cpu0.lsq0.blockedByCache                  2101                       # Number of times an access to memory failed due to the cache being blocked (Count)
system.cpu0.lsq0.loadToUse::samples           2677319                       # Distribution of cycle latency between the first time a load is issued and its completion (Unspecified)
system.cpu0.lsq0.loadToUse::mean            14.380085                       # Distribution of cycle latency between the first time a load is issued and its completion (Unspecified)
system.cpu0.lsq0.loadToUse::stdev           95.153469                       # Distribution of cycle latency between the first time a load is issued and its completion (Unspecified)
system.cpu0.lsq0.loadToUse::0-9               2631148     98.28%     98.28% # Distribution of cycle latency between the first time a load is issued and its completion (Unspecified)
system.cpu0.lsq0.loadToUse::10-19                  70      0.00%     98.28% # Distribution of cycle latency between the first time a load is issued and its completion (Unspecified)
system.cpu0.lsq0.loadToUse::20-29                  85      0.00%     98.28% # Distribution of cycle latency between the first time a load is issued and its completion (Unspecified)
system.cpu0.lsq0.loadToUse::30-39                  90      0.00%     98.28% # Distribution of cycle latency between the first time a load is issued and its completion (Unspecified)
system.cpu0.lsq0.loadToUse::40-49                  59      0.00%     98.29% # Distribution of cycle latency between the first time a load is issued and its completion (Unspecified)
system.cpu0.lsq0.loadToUse::50-59                 137      0.01%     98.29% # Distribution of cycle latency between the first time a load is issued and its completion (Unspecified)
system.cpu0.lsq0.loadToUse::60-69                 120      0.00%     98.30% # Distribution of cycle latency between the first time a load is issued and its completion (Unspecified)
system.cpu0.lsq0.loadToUse::70-79                 101      0.00%     98.30% # Distribution of cycle latency between the first time a load is issued and its completion (Unspecified)
system.cpu0.lsq0.loadToUse::80-89                  88      0.00%     98.30% # Distribution of cycle latency between the first time a load is issued and its completion (Unspecified)
system.cpu0.lsq0.loadToUse::90-99                  76      0.00%     98.31% # Distribution of cycle latency between the first time a load is issued and its completion (Unspecified)
system.cpu0.lsq0.loadToUse::100-109                76      0.00%     98.31% # Distribution of cycle latency between the first time a load is issued and its completion (Unspecified)
system.cpu0.lsq0.loadToUse::110-119                86      0.00%     98.31% # Distribution of cycle latency between the first time a load is issued and its completion (Unspecified)
system.cpu0.lsq0.loadToUse::120-129                49      0.00%     98.31% # Distribution of cycle latency between the first time a load is issued and its completion (Unspecified)
system.cpu0.lsq0.loadToUse::130-139                28      0.00%     98.32% # Distribution of cycle latency between the first time a load is issued and its completion (Unspecified)
system.cpu0.lsq0.loadToUse::140-149                62      0.00%     98.32% # Distribution of cycle latency between the first time a load is issued and its completion (Unspecified)
system.cpu0.lsq0.loadToUse::150-159                80      0.00%     98.32% # Distribution of cycle latency between the first time a load is issued and its completion (Unspecified)
system.cpu0.lsq0.loadToUse::160-169                78      0.00%     98.32% # Distribution of cycle latency between the first time a load is issued and its completion (Unspecified)
system.cpu0.lsq0.loadToUse::170-179               147      0.01%     98.33% # Distribution of cycle latency between the first time a load is issued and its completion (Unspecified)
system.cpu0.lsq0.loadToUse::180-189               599      0.02%     98.35% # Distribution of cycle latency between the first time a load is issued and its completion (Unspecified)
system.cpu0.lsq0.loadToUse::190-199                29      0.00%     98.35% # Distribution of cycle latency between the first time a load is issued and its completion (Unspecified)
system.cpu0.lsq0.loadToUse::200-209                57      0.00%     98.35% # Distribution of cycle latency between the first time a load is issued and its completion (Unspecified)
system.cpu0.lsq0.loadToUse::210-219                65      0.00%     98.36% # Distribution of cycle latency between the first time a load is issued and its completion (Unspecified)
system.cpu0.lsq0.loadToUse::220-229               108      0.00%     98.36% # Distribution of cycle latency between the first time a load is issued and its completion (Unspecified)
system.cpu0.lsq0.loadToUse::230-239               183      0.01%     98.37% # Distribution of cycle latency between the first time a load is issued and its completion (Unspecified)
system.cpu0.lsq0.loadToUse::240-249              1100      0.04%     98.41% # Distribution of cycle latency between the first time a load is issued and its completion (Unspecified)
system.cpu0.lsq0.loadToUse::250-259                67      0.00%     98.41% # Distribution of cycle latency between the first time a load is issued and its completion (Unspecified)
system.cpu0.lsq0.loadToUse::260-269                60      0.00%     98.41% # Distribution of cycle latency between the first time a load is issued and its completion (Unspecified)
system.cpu0.lsq0.loadToUse::270-279                78      0.00%     98.42% # Distribution of cycle latency between the first time a load is issued and its completion (Unspecified)
system.cpu0.lsq0.loadToUse::280-289               179      0.01%     98.42% # Distribution of cycle latency between the first time a load is issued and its completion (Unspecified)
system.cpu0.lsq0.loadToUse::290-299               288      0.01%     98.43% # Distribution of cycle latency between the first time a load is issued and its completion (Unspecified)
system.cpu0.lsq0.loadToUse::overflows           41926      1.57%    100.00% # Distribution of cycle latency between the first time a load is issued and its completion (Unspecified)
system.cpu0.lsq0.loadToUse::min_value               2                       # Distribution of cycle latency between the first time a load is issued and its completion (Unspecified)
system.cpu0.lsq0.loadToUse::max_value            2579                       # Distribution of cycle latency between the first time a load is issued and its completion (Unspecified)
system.cpu0.lsq0.loadToUse::total             2677319                       # Distribution of cycle latency between the first time a load is issued and its completion (Unspecified)
system.cpu0.mmu.dtb.rdAccesses                2796399                       # TLB accesses on read requests (Count)
system.cpu0.mmu.dtb.wrAccesses                1708489                       # TLB accesses on write requests (Count)
system.cpu0.mmu.dtb.rdMisses                     3182                       # TLB misses on read requests (Count)
system.cpu0.mmu.dtb.wrMisses                      432                       # TLB misses on write requests (Count)
system.cpu0.mmu.dtb.walker.power_state.pwrStateResidencyTicks::UNDEFINED   7846872000                       # Cumulative time (in ticks) in various power states (Tick)
system.cpu0.mmu.itb.rdAccesses                      0                       # TLB accesses on read requests (Count)
system.cpu0.mmu.itb.wrAccesses                 874362                       # TLB accesses on write requests (Count)
system.cpu0.mmu.itb.rdMisses                        0                       # TLB misses on read requests (Count)
system.cpu0.mmu.itb.wrMisses                     3170                       # TLB misses on write requests (Count)
system.cpu0.mmu.itb.walker.power_state.pwrStateResidencyTicks::UNDEFINED   7846872000                       # Cumulative time (in ticks) in various power states (Tick)
system.cpu0.power_state.pwrStateResidencyTicks::ON   7846872000                       # Cumulative time (in ticks) in various power states (Tick)
system.cpu0.rename.squashCycles                 38659                       # Number of cycles rename is squashing (Cycle)
system.cpu0.rename.idleCycles                 1759164                       # Number of cycles rename is idle (Cycle)
system.cpu0.rename.blockCycles                6605572                       # Number of cycles rename is blocking (Cycle)
system.cpu0.rename.serializeStallCycles         21284                       # count of cycles rename stalled for serializing inst (Cycle)
system.cpu0.rename.runCycles                  2544053                       # Number of cycles rename is running (Cycle)
system.cpu0.rename.unblockCycles              3471854                       # Number of cycles rename is unblocking (Cycle)
system.cpu0.rename.renamedInsts              22750888                       # Number of instructions processed by rename (Count)
system.cpu0.rename.ROBFullEvents               105050                       # Number of times rename has blocked due to ROB full (Count)
system.cpu0.rename.IQFullEvents               1519712                       # Number of times rename has blocked due to IQ full (Count)
system.cpu0.rename.LQFullEvents                154944                       # Number of times rename has blocked due to LQ full (Count)
system.cpu0.rename.SQFullEvents               1627844                       # Number of times rename has blocked due to SQ full (Count)
system.cpu0.rename.fullRegistersEvents           2911                       # Number of times there has been no free registers (Count)
system.cpu0.rename.renamedOperands           49513387                       # Number of destination operands rename has renamed (Count)
system.cpu0.rename.lookups                   89842344                       # Number of register rename lookups that rename has made (Count)
system.cpu0.rename.intLookups                36140921                       # Number of integer rename lookups (Count)
system.cpu0.rename.fpLookups                   191479                       # Number of floating rename lookups (Count)
system.cpu0.rename.committedMaps             46101745                       # Number of HB maps that are committed (Count)
system.cpu0.rename.undoneMaps                 3411642                       # Number of HB maps that are undone due to squashing (Count)
system.cpu0.rename.serializing                    874                       # count of serializing insts renamed (Count)
system.cpu0.rename.tempSerializing                859                       # count of temporary serializing insts renamed (Count)
system.cpu0.rename.skidInsts                  6835482                       # count of insts added to the skid buffer (Count)
system.cpu0.rob.reads                        35962081                       # The number of ROB reads (Count)
system.cpu0.rob.writes                       45169856                       # The number of ROB writes (Count)
system.cpu0.thread_0.numInsts                 9167119                       # Number of Instructions committed (Count)
system.cpu0.thread_0.numOps                  21127004                       # Number of Ops committed (Count)
system.cpu0.thread_0.numMemRefs                     0                       # Number of Memory References (Count)
system.cpu0.workload.numSyscalls                   63                       # Number of system calls (Count)
system.cpu1.numCycles                        15088159                       # Number of cpu cycles simulated (Cycle)
system.cpu1.numWorkItemsStarted                     0                       # Number of work items this cpu started (Count)
system.cpu1.numWorkItemsCompleted                   0                       # Number of work items this cpu completed (Count)
system.cpu1.instsAdded                       22493785                       # Number of instructions added to the IQ (excludes non-spec) (Count)
system.cpu1.nonSpecInstsAdded                    1102                       # Number of non-speculative instructions added to the IQ (Count)
system.cpu1.instsIssued                      21980908                       # Number of instructions issued (Count)
system.cpu1.squashedInstsIssued                  2944                       # Number of squashed instructions issued (Count)
system.cpu1.squashedInstsExamined             1367883                       # Number of squashed instructions iterated over during squash; mainly for profiling (Count)
system.cpu1.squashedOperandsExamined          3039616                       # Number of squashed operands that are examined and possibly removed from graph (Count)
system.cpu1.squashedNonSpecRemoved                249                       # Number of squashed non-spec instructions that were removed (Count)
system.cpu1.numIssuedDist::samples           14032273                       # Number of insts issued each cycle (Count)
system.cpu1.numIssuedDist::mean              1.566454                       # Number of insts issued each cycle (Count)
system.cpu1.numIssuedDist::stdev             2.015321                       # Number of insts issued each cycle (Count)
system.cpu1.numIssuedDist::underflows               0      0.00%      0.00% # Number of insts issued each cycle (Count)
system.cpu1.numIssuedDist::0                  7404042     52.76%     52.76% # Number of insts issued each cycle (Count)
system.cpu1.numIssuedDist::1                  1120236      7.98%     60.75% # Number of insts issued each cycle (Count)
system.cpu1.numIssuedDist::2                  1034602      7.37%     68.12% # Number of insts issued each cycle (Count)
system.cpu1.numIssuedDist::3                  1739924     12.40%     80.52% # Number of insts issued each cycle (Count)
system.cpu1.numIssuedDist::4                  1158687      8.26%     88.78% # Number of insts issued each cycle (Count)
system.cpu1.numIssuedDist::5                   883869      6.30%     95.08% # Number of insts issued each cycle (Count)
system.cpu1.numIssuedDist::6                   398907      2.84%     97.92% # Number of insts issued each cycle (Count)
system.cpu1.numIssuedDist::7                   211887      1.51%     99.43% # Number of insts issued each cycle (Count)
system.cpu1.numIssuedDist::8                    80119      0.57%    100.00% # Number of insts issued each cycle (Count)
system.cpu1.numIssuedDist::overflows                0      0.00%    100.00% # Number of insts issued each cycle (Count)
system.cpu1.numIssuedDist::min_value                0                       # Number of insts issued each cycle (Count)
system.cpu1.numIssuedDist::max_value                8                       # Number of insts issued each cycle (Count)
system.cpu1.numIssuedDist::total             14032273                       # Number of insts issued each cycle (Count)
system.cpu1.statFuBusy::No_OpClass                  0      0.00%      0.00% # attempts to use FU when none available (Count)
system.cpu1.statFuBusy::IntAlu                  77269     74.46%     74.46% # attempts to use FU when none available (Count)
system.cpu1.statFuBusy::IntMult                     0      0.00%     74.46% # attempts to use FU when none available (Count)
system.cpu1.statFuBusy::IntDiv                      0      0.00%     74.46% # attempts to use FU when none available (Count)
system.cpu1.statFuBusy::FloatAdd                    0      0.00%     74.46% # attempts to use FU when none available (Count)
system.cpu1.statFuBusy::FloatCmp                    0      0.00%     74.46% # attempts to use FU when none available (Count)
system.cpu1.statFuBusy::FloatCvt                    0      0.00%     74.46% # attempts to use FU when none available (Count)
system.cpu1.statFuBusy::FloatMult                   0      0.00%     74.46% # attempts to use FU when none available (Count)
system.cpu1.statFuBusy::FloatMultAcc                0      0.00%     74.46% # attempts to use FU when none available (Count)
system.cpu1.statFuBusy::FloatDiv                    0      0.00%     74.46% # attempts to use FU when none available (Count)
system.cpu1.statFuBusy::FloatMisc                   0      0.00%     74.46% # attempts to use FU when none available (Count)
system.cpu1.statFuBusy::FloatSqrt                   0      0.00%     74.46% # attempts to use FU when none available (Count)
system.cpu1.statFuBusy::SimdAdd                     0      0.00%     74.46% # attempts to use FU when none available (Count)
system.cpu1.statFuBusy::SimdAddAcc                  0      0.00%     74.46% # attempts to use FU when none available (Count)
system.cpu1.statFuBusy::SimdAlu                   121      0.12%     74.58% # attempts to use FU when none available (Count)
system.cpu1.statFuBusy::SimdCmp                     0      0.00%     74.58% # attempts to use FU when none available (Count)
system.cpu1.statFuBusy::SimdCvt                   169      0.16%     74.74% # attempts to use FU when none available (Count)
system.cpu1.statFuBusy::SimdMisc                    0      0.00%     74.74% # attempts to use FU when none available (Count)
system.cpu1.statFuBusy::SimdMult                    0      0.00%     74.74% # attempts to use FU when none available (Count)
system.cpu1.statFuBusy::SimdMultAcc                 0      0.00%     74.74% # attempts to use FU when none available (Count)
system.cpu1.statFuBusy::SimdShift                 205      0.20%     74.94% # attempts to use FU when none available (Count)
system.cpu1.statFuBusy::SimdShiftAcc                0      0.00%     74.94% # attempts to use FU when none available (Count)
system.cpu1.statFuBusy::SimdDiv                     0      0.00%     74.94% # attempts to use FU when none available (Count)
system.cpu1.statFuBusy::SimdSqrt                    0      0.00%     74.94% # attempts to use FU when none available (Count)
system.cpu1.statFuBusy::SimdFloatAdd                0      0.00%     74.94% # attempts to use FU when none available (Count)
system.cpu1.statFuBusy::SimdFloatAlu                0      0.00%     74.94% # attempts to use FU when none available (Count)
system.cpu1.statFuBusy::SimdFloatCmp                0      0.00%     74.94% # attempts to use FU when none available (Count)
system.cpu1.statFuBusy::SimdFloatCvt                0      0.00%     74.94% # attempts to use FU when none available (Count)
system.cpu1.statFuBusy::SimdFloatDiv                0      0.00%     74.94% # attempts to use FU when none available (Count)
system.cpu1.statFuBusy::SimdFloatMisc               0      0.00%     74.94% # attempts to use FU when none available (Count)
system.cpu1.statFuBusy::SimdFloatMult               0      0.00%     74.94% # attempts to use FU when none available (Count)
system.cpu1.statFuBusy::SimdFloatMultAcc            0      0.00%     74.94% # attempts to use FU when none available (Count)
system.cpu1.statFuBusy::SimdFloatSqrt               0      0.00%     74.94% # attempts to use FU when none available (Count)
system.cpu1.statFuBusy::SimdReduceAdd               0      0.00%     74.94% # attempts to use FU when none available (Count)
system.cpu1.statFuBusy::SimdReduceAlu               0      0.00%     74.94% # attempts to use FU when none available (Count)
system.cpu1.statFuBusy::SimdReduceCmp               0      0.00%     74.94% # attempts to use FU when none available (Count)
system.cpu1.statFuBusy::SimdFloatReduceAdd            0      0.00%     74.94% # attempts to use FU when none available (Count)
system.cpu1.statFuBusy::SimdFloatReduceCmp            0      0.00%     74.94% # attempts to use FU when none available (Count)
system.cpu1.statFuBusy::SimdAes                     0      0.00%     74.94% # attempts to use FU when none available (Count)
system.cpu1.statFuBusy::SimdAesMix                  0      0.00%     74.94% # attempts to use FU when none available (Count)
system.cpu1.statFuBusy::SimdSha1Hash                0      0.00%     74.94% # attempts to use FU when none available (Count)
system.cpu1.statFuBusy::SimdSha1Hash2               0      0.00%     74.94% # attempts to use FU when none available (Count)
system.cpu1.statFuBusy::SimdSha256Hash              0      0.00%     74.94% # attempts to use FU when none available (Count)
system.cpu1.statFuBusy::SimdSha256Hash2             0      0.00%     74.94% # attempts to use FU when none available (Count)
system.cpu1.statFuBusy::SimdShaSigma2               0      0.00%     74.94% # attempts to use FU when none available (Count)
system.cpu1.statFuBusy::SimdShaSigma3               0      0.00%     74.94% # attempts to use FU when none available (Count)
system.cpu1.statFuBusy::SimdPredAlu                 0      0.00%     74.94% # attempts to use FU when none available (Count)
system.cpu1.statFuBusy::MemRead                 12102     11.66%     86.60% # attempts to use FU when none available (Count)
system.cpu1.statFuBusy::MemWrite                11967     11.53%     98.13% # attempts to use FU when none available (Count)
system.cpu1.statFuBusy::FloatMemRead             1408      1.36%     99.49% # attempts to use FU when none available (Count)
system.cpu1.statFuBusy::FloatMemWrite             530      0.51%    100.00% # attempts to use FU when none available (Count)
system.cpu1.statFuBusy::IprAccess                   0      0.00%    100.00% # attempts to use FU when none available (Count)
system.cpu1.statFuBusy::InstPrefetch                0      0.00%    100.00% # attempts to use FU when none available (Count)
system.cpu1.statIssuedInstType_0::No_OpClass        34837      0.16%      0.16% # Number of instructions issued per FU type, per thread (Count)
system.cpu1.statIssuedInstType_0::IntAlu     17320284     78.80%     78.96% # Number of instructions issued per FU type, per thread (Count)
system.cpu1.statIssuedInstType_0::IntMult           38      0.00%     78.96% # Number of instructions issued per FU type, per thread (Count)
system.cpu1.statIssuedInstType_0::IntDiv        38352      0.17%     79.13% # Number of instructions issued per FU type, per thread (Count)
system.cpu1.statIssuedInstType_0::FloatAdd         4372      0.02%     79.15% # Number of instructions issued per FU type, per thread (Count)
system.cpu1.statIssuedInstType_0::FloatCmp            0      0.00%     79.15% # Number of instructions issued per FU type, per thread (Count)
system.cpu1.statIssuedInstType_0::FloatCvt         1702      0.01%     79.16% # Number of instructions issued per FU type, per thread (Count)
system.cpu1.statIssuedInstType_0::FloatMult            0      0.00%     79.16% # Number of instructions issued per FU type, per thread (Count)
system.cpu1.statIssuedInstType_0::FloatMultAcc            0      0.00%     79.16% # Number of instructions issued per FU type, per thread (Count)
system.cpu1.statIssuedInstType_0::FloatDiv            0      0.00%     79.16% # Number of instructions issued per FU type, per thread (Count)
system.cpu1.statIssuedInstType_0::FloatMisc            0      0.00%     79.16% # Number of instructions issued per FU type, per thread (Count)
system.cpu1.statIssuedInstType_0::FloatSqrt            0      0.00%     79.16% # Number of instructions issued per FU type, per thread (Count)
system.cpu1.statIssuedInstType_0::SimdAdd         8516      0.04%     79.20% # Number of instructions issued per FU type, per thread (Count)
system.cpu1.statIssuedInstType_0::SimdAddAcc            0      0.00%     79.20% # Number of instructions issued per FU type, per thread (Count)
system.cpu1.statIssuedInstType_0::SimdAlu        17250      0.08%     79.27% # Number of instructions issued per FU type, per thread (Count)
system.cpu1.statIssuedInstType_0::SimdCmp            0      0.00%     79.27% # Number of instructions issued per FU type, per thread (Count)
system.cpu1.statIssuedInstType_0::SimdCvt        18867      0.09%     79.36% # Number of instructions issued per FU type, per thread (Count)
system.cpu1.statIssuedInstType_0::SimdMisc         8982      0.04%     79.40% # Number of instructions issued per FU type, per thread (Count)
system.cpu1.statIssuedInstType_0::SimdMult            0      0.00%     79.40% # Number of instructions issued per FU type, per thread (Count)
system.cpu1.statIssuedInstType_0::SimdMultAcc            0      0.00%     79.40% # Number of instructions issued per FU type, per thread (Count)
system.cpu1.statIssuedInstType_0::SimdShift         2987      0.01%     79.42% # Number of instructions issued per FU type, per thread (Count)
system.cpu1.statIssuedInstType_0::SimdShiftAcc            0      0.00%     79.42% # Number of instructions issued per FU type, per thread (Count)
system.cpu1.statIssuedInstType_0::SimdDiv            0      0.00%     79.42% # Number of instructions issued per FU type, per thread (Count)
system.cpu1.statIssuedInstType_0::SimdSqrt            0      0.00%     79.42% # Number of instructions issued per FU type, per thread (Count)
system.cpu1.statIssuedInstType_0::SimdFloatAdd            0      0.00%     79.42% # Number of instructions issued per FU type, per thread (Count)
system.cpu1.statIssuedInstType_0::SimdFloatAlu            0      0.00%     79.42% # Number of instructions issued per FU type, per thread (Count)
system.cpu1.statIssuedInstType_0::SimdFloatCmp            0      0.00%     79.42% # Number of instructions issued per FU type, per thread (Count)
system.cpu1.statIssuedInstType_0::SimdFloatCvt            0      0.00%     79.42% # Number of instructions issued per FU type, per thread (Count)
system.cpu1.statIssuedInstType_0::SimdFloatDiv            0      0.00%     79.42% # Number of instructions issued per FU type, per thread (Count)
system.cpu1.statIssuedInstType_0::SimdFloatMisc            0      0.00%     79.42% # Number of instructions issued per FU type, per thread (Count)
system.cpu1.statIssuedInstType_0::SimdFloatMult            0      0.00%     79.42% # Number of instructions issued per FU type, per thread (Count)
system.cpu1.statIssuedInstType_0::SimdFloatMultAcc            0      0.00%     79.42% # Number of instructions issued per FU type, per thread (Count)
system.cpu1.statIssuedInstType_0::SimdFloatSqrt            0      0.00%     79.42% # Number of instructions issued per FU type, per thread (Count)
system.cpu1.statIssuedInstType_0::SimdReduceAdd            0      0.00%     79.42% # Number of instructions issued per FU type, per thread (Count)
system.cpu1.statIssuedInstType_0::SimdReduceAlu            0      0.00%     79.42% # Number of instructions issued per FU type, per thread (Count)
system.cpu1.statIssuedInstType_0::SimdReduceCmp            0      0.00%     79.42% # Number of instructions issued per FU type, per thread (Count)
system.cpu1.statIssuedInstType_0::SimdFloatReduceAdd            0      0.00%     79.42% # Number of instructions issued per FU type, per thread (Count)
system.cpu1.statIssuedInstType_0::SimdFloatReduceCmp            0      0.00%     79.42% # Number of instructions issued per FU type, per thread (Count)
system.cpu1.statIssuedInstType_0::SimdAes            0      0.00%     79.42% # Number of instructions issued per FU type, per thread (Count)
system.cpu1.statIssuedInstType_0::SimdAesMix            0      0.00%     79.42% # Number of instructions issued per FU type, per thread (Count)
system.cpu1.statIssuedInstType_0::SimdSha1Hash            0      0.00%     79.42% # Number of instructions issued per FU type, per thread (Count)
system.cpu1.statIssuedInstType_0::SimdSha1Hash2            0      0.00%     79.42% # Number of instructions issued per FU type, per thread (Count)
system.cpu1.statIssuedInstType_0::SimdSha256Hash            0      0.00%     79.42% # Number of instructions issued per FU type, per thread (Count)
system.cpu1.statIssuedInstType_0::SimdSha256Hash2            0      0.00%     79.42% # Number of instructions issued per FU type, per thread (Count)
system.cpu1.statIssuedInstType_0::SimdShaSigma2            0      0.00%     79.42% # Number of instructions issued per FU type, per thread (Count)
system.cpu1.statIssuedInstType_0::SimdShaSigma3            0      0.00%     79.42% # Number of instructions issued per FU type, per thread (Count)
system.cpu1.statIssuedInstType_0::SimdPredAlu            0      0.00%     79.42% # Number of instructions issued per FU type, per thread (Count)
system.cpu1.statIssuedInstType_0::MemRead      2780214     12.65%     92.06% # Number of instructions issued per FU type, per thread (Count)
system.cpu1.statIssuedInstType_0::MemWrite      1692498      7.70%     99.76% # Number of instructions issued per FU type, per thread (Count)
system.cpu1.statIssuedInstType_0::FloatMemRead        33796      0.15%     99.92% # Number of instructions issued per FU type, per thread (Count)
system.cpu1.statIssuedInstType_0::FloatMemWrite        18213      0.08%    100.00% # Number of instructions issued per FU type, per thread (Count)
system.cpu1.statIssuedInstType_0::IprAccess            0      0.00%    100.00% # Number of instructions issued per FU type, per thread (Count)
system.cpu1.statIssuedInstType_0::InstPrefetch            0      0.00%    100.00% # Number of instructions issued per FU type, per thread (Count)
system.cpu1.statIssuedInstType_0::total      21980908                       # Number of instructions issued per FU type, per thread (Count)
system.cpu1.issueRate                        1.456832                       # Inst issue rate ((Count/Cycle))
system.cpu1.fuBusy                             103771                       # FU busy when requested (Count)
system.cpu1.fuBusyRate                       0.004721                       # FU busy rate (busy events/executed inst) ((Count/Count))
system.cpu1.intInstQueueReads                57866406                       # Number of integer instruction queue reads (Count)
system.cpu1.intInstQueueWrites               23684574                       # Number of integer instruction queue writes (Count)
system.cpu1.intInstQueueWakeupAccesses       21767945                       # Number of integer instruction queue wakeup accesses (Count)
system.cpu1.fpInstQueueReads                   234398                       # Number of floating instruction queue reads (Count)
system.cpu1.fpInstQueueWrites                  178463                       # Number of floating instruction queue writes (Count)
system.cpu1.fpInstQueueWakeupAccesses          112163                       # Number of floating instruction queue wakeup accesses (Count)
system.cpu1.vecInstQueueReads                       0                       # Number of vector instruction queue reads (Count)
system.cpu1.vecInstQueueWrites                      0                       # Number of vector instruction queue writes (Count)
system.cpu1.vecInstQueueWakeupAccesses              0                       # Number of vector instruction queue wakeup accesses (Count)
system.cpu1.intAluAccesses                   21931577                       # Number of integer alu accesses (Count)
system.cpu1.fpAluAccesses                      118265                       # Number of floating point alu accesses (Count)
system.cpu1.vecAluAccesses                          0                       # Number of vector alu accesses (Count)
system.cpu1.numInsts                         21920640                       # Number of executed instructions (Count)
system.cpu1.numLoadInsts                      2802023                       # Number of load instructions executed (Count)
system.cpu1.numSquashedInsts                    60268                       # Number of squashed instructions skipped in execute (Count)
system.cpu1.numSwp                                  0                       # Number of swp insts executed (Count)
system.cpu1.numNop                                  0                       # Number of nop insts executed (Count)
system.cpu1.numRefs                           4510557                       # Number of memory reference insts executed (Count)
system.cpu1.numBranches                       1798271                       # Number of branches executed (Count)
[...]
system.ruby.network.ext_out_link_utilization      4269758                       (Unspecified)
system.ruby.network.flit_network_latency | 81441952000                       |211913077500                       | 19845446500                       (Unspecified)
system.ruby.network.flit_queueing_latency |  2238138000                       |  2247804000                       |   150430000                       (Unspecified)
system.ruby.network.flits_injected       |     1014762     23.77%     23.77% |     2954141     69.19%     92.95% |      300861      7.05%    100.00% (Unspecified)
system.ruby.network.flits_injected::total      4269764                       (Unspecified)
system.ruby.network.flits_received       |     1014762     23.77%     23.77% |     2954136     69.19%     92.95% |      300860      7.05%    100.00% (Unspecified)
system.ruby.network.flits_received::total      4269758                       (Unspecified)
system.ruby.network.int_link_utilization     10552146                       (Unspecified)
system.ruby.network.packet_network_latency | 60358760000                       | 70081647000                       | 19845446500                       (Unspecified)
system.ruby.network.packet_queueing_latency |  1816884000                       |   584632000                       |   150430000                       (Unspecified)
system.ruby.network.packets_injected     |      825034     42.29%     42.29% |      825033     42.29%     84.58% |      300861     15.42%    100.00% (Unspecified)
system.ruby.network.packets_injected::total      1950928                       (Unspecified)
system.ruby.network.packets_received     |      825034     42.29%     42.29% |      825032     42.29%     84.58% |      300860     15.42%    100.00% (Unspecified)
system.ruby.network.packets_received::total      1950926                       (Unspecified)
system.ruby.network.routers00.Var_1                 0                       (Unspecified)
system.ruby.network.routers00.Var_2                 0                       (Unspecified)
system.ruby.network.routers00.Var_3                 0                       (Unspecified)
system.ruby.network.routers00.all_counts            0                       (Unspecified)
system.ruby.network.routers00.buffer_reads       675659                       (Unspecified)
system.ruby.network.routers00.buffer_writes       675659                       (Unspecified)
system.ruby.network.routers00.crossbar_activity       675659                       (Unspecified)
system.ruby.network.routers00.detour_counts            0                       (Unspecified)
system.ruby.network.routers00.regular_var            0                       (Unspecified)
system.ruby.network.routers00.risk_counts            0                       (Unspecified)
system.ruby.network.routers00.sw_input_arbiter_activity       680156                       (Unspecified)
system.ruby.network.routers00.sw_output_arbiter_activity       675659                       (Unspecified)
system.ruby.network.routers01.Var_1                 0                       (Unspecified)
system.ruby.network.routers01.Var_2                 0                       (Unspecified)
system.ruby.network.routers01.Var_3                 0                       (Unspecified)
system.ruby.network.routers01.all_counts            0                       (Unspecified)
system.ruby.network.routers01.buffer_reads       941624                       (Unspecified)
system.ruby.network.routers01.buffer_writes       941624                       (Unspecified)
system.ruby.network.routers01.crossbar_activity       941624                       (Unspecified)
system.ruby.network.routers01.detour_counts            0                       (Unspecified)
system.ruby.network.routers01.regular_var            0                       (Unspecified)
system.ruby.network.routers01.risk_counts            0                       (Unspecified)
system.ruby.network.routers01.sw_input_arbiter_activity       951875                       (Unspecified)
system.ruby.network.routers01.sw_output_arbiter_activity       941624                       (Unspecified)
system.ruby.network.routers02.Var_1                 0                       (Unspecified)
system.ruby.network.routers02.Var_2                 0                       (Unspecified)
system.ruby.network.routers02.Var_3                 0                       (Unspecified)
system.ruby.network.routers02.all_counts            0                       (Unspecified)
system.ruby.network.routers02.buffer_reads       943385                       (Unspecified)
system.ruby.network.routers02.buffer_writes       943385                       (Unspecified)
system.ruby.network.routers02.crossbar_activity       943385                       (Unspecified)
system.ruby.network.routers02.detour_counts            0                       (Unspecified)
system.ruby.network.routers02.regular_var            0                       (Unspecified)
system.ruby.network.routers02.risk_counts            0                       (Unspecified)
system.ruby.network.routers02.sw_input_arbiter_activity       953371                       (Unspecified)
system.ruby.network.routers02.sw_output_arbiter_activity       943385                       (Unspecified)
system.ruby.network.routers03.Var_1                 0                       (Unspecified)
system.ruby.network.routers03.Var_2                 0                       (Unspecified)
system.ruby.network.routers03.Var_3                 0                       (Unspecified)
system.ruby.network.routers03.all_counts            0                       (Unspecified)
system.ruby.network.routers03.buffer_reads       664877                       (Unspecified)
system.ruby.network.routers03.buffer_writes       664877                       (Unspecified)
system.ruby.network.routers03.crossbar_activity       664877                       (Unspecified)
system.ruby.network.routers03.detour_counts            0                       (Unspecified)
system.ruby.network.routers03.regular_var            0                       (Unspecified)
system.ruby.network.routers03.risk_counts            0                       (Unspecified)
system.ruby.network.routers03.sw_input_arbiter_activity       669299                       (Unspecified)
system.ruby.network.routers03.sw_output_arbiter_activity       664877                       (Unspecified)
system.ruby.network.routers04.Var_1                 0                       (Unspecified)
system.ruby.network.routers04.Var_2                 0                       (Unspecified)
system.ruby.network.routers04.Var_3                 0                       (Unspecified)
system.ruby.network.routers04.all_counts            0                       (Unspecified)
system.ruby.network.routers04.buffer_reads       923916                       (Unspecified)
system.ruby.network.routers04.buffer_writes       923916                       (Unspecified)
system.ruby.network.routers04.crossbar_activity       923916                       (Unspecified)
system.ruby.network.routers04.detour_counts            0                       (Unspecified)
system.ruby.network.routers04.regular_var            0                       (Unspecified)
system.ruby.network.routers04.risk_counts            0                       (Unspecified)
system.ruby.network.routers04.sw_input_arbiter_activity       933334                       (Unspecified)
system.ruby.network.routers04.sw_output_arbiter_activity       923916                       (Unspecified)
system.ruby.network.routers05.Var_1                 0                       (Unspecified)
system.ruby.network.routers05.Var_2                 0                       (Unspecified)
system.ruby.network.routers05.Var_3                 0                       (Unspecified)
system.ruby.network.routers05.all_counts            0                       (Unspecified)
system.ruby.network.routers05.buffer_reads      1190329                       (Unspecified)
system.ruby.network.routers05.buffer_writes      1190329                       (Unspecified)
system.ruby.network.routers05.crossbar_activity      1190329                       (Unspecified)
system.ruby.network.routers05.detour_counts            0                       (Unspecified)
system.ruby.network.routers05.regular_var            0                       (Unspecified)
system.ruby.network.routers05.risk_counts            0                       (Unspecified)
system.ruby.network.routers05.sw_input_arbiter_activity      1206021                       (Unspecified)
system.ruby.network.routers05.sw_output_arbiter_activity      1190329                       (Unspecified)
system.ruby.network.routers06.Var_1                 0                       (Unspecified)
system.ruby.network.routers06.Var_2                 0                       (Unspecified)
system.ruby.network.routers06.Var_3                 0                       (Unspecified)
system.ruby.network.routers06.all_counts            0                       (Unspecified)
system.ruby.network.routers06.buffer_reads      1188758                       (Unspecified)
system.ruby.network.routers06.buffer_writes      1188758                       (Unspecified)
system.ruby.network.routers06.crossbar_activity      1188758                       (Unspecified)
system.ruby.network.routers06.detour_counts            0                       (Unspecified)
system.ruby.network.routers06.regular_var            0                       (Unspecified)
system.ruby.network.routers06.risk_counts            0                       (Unspecified)
system.ruby.network.routers06.sw_input_arbiter_activity      1204642                       (Unspecified)
system.ruby.network.routers06.sw_output_arbiter_activity      1188758                       (Unspecified)
system.ruby.network.routers07.Var_1                 0                       (Unspecified)
system.ruby.network.routers07.Var_2                 0                       (Unspecified)
system.ruby.network.routers07.Var_3                 0                       (Unspecified)
system.ruby.network.routers07.all_counts            0                       (Unspecified)
system.ruby.network.routers07.buffer_reads       910817                       (Unspecified)
system.ruby.network.routers07.buffer_writes       910817                       (Unspecified)
system.ruby.network.routers07.crossbar_activity       910817                       (Unspecified)
system.ruby.network.routers07.detour_counts            0                       (Unspecified)
system.ruby.network.routers07.regular_var            0                       (Unspecified)
system.ruby.network.routers07.risk_counts            0                       (Unspecified)
system.ruby.network.routers07.sw_input_arbiter_activity       920414                       (Unspecified)
system.ruby.network.routers07.sw_output_arbiter_activity       910817                       (Unspecified)
system.ruby.network.routers08.Var_1                 0                       (Unspecified)
system.ruby.network.routers08.Var_2                 0                       (Unspecified)
system.ruby.network.routers08.Var_3                 0                       (Unspecified)
system.ruby.network.routers08.all_counts            0                       (Unspecified)
system.ruby.network.routers08.buffer_reads       921108                       (Unspecified)
system.ruby.network.routers08.buffer_writes       921108                       (Unspecified)
system.ruby.network.routers08.crossbar_activity       921108                       (Unspecified)
system.ruby.network.routers08.detour_counts            0                       (Unspecified)
system.ruby.network.routers08.regular_var            0                       (Unspecified)
system.ruby.network.routers08.risk_counts            0                       (Unspecified)
system.ruby.network.routers08.sw_input_arbiter_activity       930672                       (Unspecified)
system.ruby.network.routers08.sw_output_arbiter_activity       921108                       (Unspecified)
system.ruby.network.routers09.Var_1                 0                       (Unspecified)
system.ruby.network.routers09.Var_2                 0                       (Unspecified)
system.ruby.network.routers09.Var_3                 0                       (Unspecified)
system.ruby.network.routers09.all_counts            0                       (Unspecified)
system.ruby.network.routers09.buffer_reads      1191279                       (Unspecified)
system.ruby.network.routers09.buffer_writes      1191279                       (Unspecified)
system.ruby.network.routers09.crossbar_activity      1191279                       (Unspecified)
system.ruby.network.routers09.detour_counts            0                       (Unspecified)
system.ruby.network.routers09.regular_var            0                       (Unspecified)
system.ruby.network.routers09.risk_counts            0                       (Unspecified)
system.ruby.network.routers09.sw_input_arbiter_activity      1206571                       (Unspecified)
system.ruby.network.routers09.sw_output_arbiter_activity      1191279                       (Unspecified)
system.ruby.network.routers10.Var_1                 0                       (Unspecified)
system.ruby.network.routers10.Var_2                 0                       (Unspecified)
system.ruby.network.routers10.Var_3                 0                       (Unspecified)
system.ruby.network.routers10.all_counts            0                       (Unspecified)
system.ruby.network.routers10.buffer_reads      1187223                       (Unspecified)
system.ruby.network.routers10.buffer_writes      1187223                       (Unspecified)
system.ruby.network.routers10.crossbar_activity      1187223                       (Unspecified)
system.ruby.network.routers10.detour_counts            0                       (Unspecified)
system.ruby.network.routers10.regular_var            0                       (Unspecified)
system.ruby.network.routers10.risk_counts            0                       (Unspecified)
system.ruby.network.routers10.sw_input_arbiter_activity      1202948                       (Unspecified)
system.ruby.network.routers10.sw_output_arbiter_activity      1187223                       (Unspecified)
system.ruby.network.routers11.Var_1                 0                       (Unspecified)
system.ruby.network.routers11.Var_2                 0                       (Unspecified)
system.ruby.network.routers11.Var_3                 0                       (Unspecified)
system.ruby.network.routers11.all_counts            0                       (Unspecified)
system.ruby.network.routers11.buffer_reads       907635                       (Unspecified)
system.ruby.network.routers11.buffer_writes       907635                       (Unspecified)
system.ruby.network.routers11.crossbar_activity       907635                       (Unspecified)
system.ruby.network.routers11.detour_counts            0                       (Unspecified)
system.ruby.network.routers11.regular_var            0                       (Unspecified)
system.ruby.network.routers11.risk_counts            0                       (Unspecified)
system.ruby.network.routers11.sw_input_arbiter_activity       917004                       (Unspecified)
system.ruby.network.routers11.sw_output_arbiter_activity       907635                       (Unspecified)
system.ruby.network.routers12.Var_1                 0                       (Unspecified)
system.ruby.network.routers12.Var_2                 0                       (Unspecified)
system.ruby.network.routers12.Var_3                 0                       (Unspecified)
system.ruby.network.routers12.all_counts            0                       (Unspecified)
system.ruby.network.routers12.buffer_reads       662961                       (Unspecified)
system.ruby.network.routers12.buffer_writes       662961                       (Unspecified)
system.ruby.network.routers12.crossbar_activity       662961                       (Unspecified)
system.ruby.network.routers12.detour_counts            0                       (Unspecified)
system.ruby.network.routers12.regular_var            0                       (Unspecified)
system.ruby.network.routers12.risk_counts            0                       (Unspecified)
system.ruby.network.routers12.sw_input_arbiter_activity       667399                       (Unspecified)
system.ruby.network.routers12.sw_output_arbiter_activity       662961                       (Unspecified)
system.ruby.network.routers13.Var_1                 0                       (Unspecified)
system.ruby.network.routers13.Var_2                 0                       (Unspecified)
system.ruby.network.routers13.Var_3                 0                       (Unspecified)
system.ruby.network.routers13.all_counts            0                       (Unspecified)
system.ruby.network.routers13.buffer_reads       930974                       (Unspecified)
system.ruby.network.routers13.buffer_writes       930974                       (Unspecified)
system.ruby.network.routers13.crossbar_activity       930974                       (Unspecified)
system.ruby.network.routers13.detour_counts            0                       (Unspecified)
system.ruby.network.routers13.regular_var            0                       (Unspecified)
system.ruby.network.routers13.risk_counts            0                       (Unspecified)
system.ruby.network.routers13.sw_input_arbiter_activity       941065                       (Unspecified)
system.ruby.network.routers13.sw_output_arbiter_activity       930974                       (Unspecified)
system.ruby.network.routers14.Var_1                 0                       (Unspecified)
system.ruby.network.routers14.Var_2                 0                       (Unspecified)
system.ruby.network.routers14.Var_3                 0                       (Unspecified)
system.ruby.network.routers14.all_counts            0                       (Unspecified)
system.ruby.network.routers14.buffer_reads       924593                       (Unspecified)
system.ruby.network.routers14.buffer_writes       924593                       (Unspecified)
system.ruby.network.routers14.crossbar_activity       924593                       (Unspecified)
system.ruby.network.routers14.detour_counts            0                       (Unspecified)
system.ruby.network.routers14.regular_var            0                       (Unspecified)
system.ruby.network.routers14.risk_counts            0                       (Unspecified)
system.ruby.network.routers14.sw_input_arbiter_activity       934405                       (Unspecified)
system.ruby.network.routers14.sw_output_arbiter_activity       924593                       (Unspecified)
system.ruby.network.routers15.Var_1                 0                       (Unspecified)
system.ruby.network.routers15.Var_2                 0                       (Unspecified)
system.ruby.network.routers15.Var_3                 0                       (Unspecified)
system.ruby.network.routers15.all_counts            0                       (Unspecified)
system.ruby.network.routers15.buffer_reads       656766                       (Unspecified)
system.ruby.network.routers15.buffer_writes       656766                       (Unspecified)
system.ruby.network.routers15.crossbar_activity       656766                       (Unspecified)
system.ruby.network.routers15.detour_counts            0                       (Unspecified)
system.ruby.network.routers15.regular_var            0                       (Unspecified)
system.ruby.network.routers15.risk_counts            0                       (Unspecified)
system.ruby.network.routers15.sw_input_arbiter_activity       660915                       (Unspecified)
system.ruby.network.routers15.sw_output_arbiter_activity       656766                       (Unspecified)

---------- End Simulation Statistics   ----------
