
---------- Begin Simulation Statistics ----------
simSeconds                                   0.007659                       # Number of seconds simulated (Second)
simTicks                                   7659263000                       # Number of ticks simulated (Tick)
finalTick                                  7659263000                       # Number of ticks from beginning of simulation (restored from checkpoints and never reset) (Tick)
simFreq                                  1000000000000                       # The number of ticks per simulated second ((Tick/Second))
hostSeconds                                   2241.16                       # Real time elapsed on the host (Second)
hostTickRate                                  3417542                       # The number of ticks simulated per host second (ticks/s) ((Tick/Second))
hostMemory                                   11408172                       # Number of bytes of host memory used (Byte)
simInsts                                    151758702                       # Number of instructions simulated (Count)
simOps                                      350799530                       # Number of ops (including micro ops) simulated (Count)
hostInstRate                                    67714                       # Simulator instruction rate (inst/s) ((Count/Second))
hostOpRate                                     156526                       # Simulator op (including micro ops) rate (op/s) ((Count/Second))
system.clk_domain.clock                          1000                       # Clock period in ticks (Tick)
system.cpu0.numCycles                        15318527                       # Number of cpu cycles simulated (Cycle)
system.cpu0.numWorkItemsStarted                     0                       # Number of work items this cpu started (Count)
system.cpu0.numWorkItemsCompleted                   0                       # Number of work items this cpu completed (Count)
system.cpu0.instsAdded                       22087631                       # Number of instructions added to the IQ (excludes non-spec) (Count)
system.cpu0.nonSpecInstsAdded                     868                       # Number of non-speculative instructions added to the IQ (Count)
system.cpu0.instsIssued                      21585437                       # Number of instructions issued (Count)
system.cpu0.squashedInstsIssued                  2861                       # Number of squashed instructions issued (Count)
system.cpu0.squashedInstsExamined             1340067                       # Number of squashed instructions iterated over during squash; mainly for profiling (Count)
system.cpu0.squashedOperandsExamined          2978514                       # Number of squashed operands that are examined and possibly removed from graph (Count)
system.cpu0.squashedNonSpecRemoved                135                       # Number of squashed non-spec instructions that were removed (Count)
system.cpu0.numIssuedDist::samples           14248995                       # Number of insts issued each cycle (Count)
system.cpu0.numIssuedDist::mean              1.514874                       # Number of insts issued each cycle (Count)
system.cpu0.numIssuedDist::stdev             2.001568                       # Number of insts issued each cycle (Count)
system.cpu0.numIssuedDist::underflows               0      0.00%      0.00% # Number of insts issued each cycle (Count)
system.cpu0.numIssuedDist::0                  7741124     54.33%     54.33% # Number of insts issued each cycle (Count)
system.cpu0.numIssuedDist::1                  1101441      7.73%     62.06% # Number of insts issued each cycle (Count)
system.cpu0.numIssuedDist::2                  1014945      7.12%     69.18% # Number of insts issued each cycle (Count)
system.cpu0.numIssuedDist::3                  1704305     11.96%     81.14% # Number of insts issued each cycle (Count)
system.cpu0.numIssuedDist::4                  1136129      7.97%     89.11% # Number of insts issued each cycle (Count)
system.cpu0.numIssuedDist::5                   869475      6.10%     95.22% # Number of insts issued each cycle (Count)
system.cpu0.numIssuedDist::6                   399234      2.80%     98.02% # Number of insts issued each cycle (Count)
system.cpu0.numIssuedDist::7                   204840      1.44%     99.46% # Number of insts issued each cycle (Count)
system.cpu0.numIssuedDist::8                    77502      0.54%    100.00% # Number of insts issued each cycle (Count)
system.cpu0.numIssuedDist::overflows                0      0.00%    100.00% # Number of insts issued each cycle (Count)
system.cpu0.numIssuedDist::min_value                0                       # Number of insts issued each cycle (Count)
system.cpu0.numIssuedDist::max_value                8                       # Number of insts issued each cycle (Count)
system.cpu0.numIssuedDist::total             14248995                       # Number of insts issued each cycle (Count)
system.cpu0.statFuBusy::No_OpClass                  0      0.00%      0.00% # attempts to use FU when none available (Count)
system.cpu0.statFuBusy::IntAlu                  76263     74.04%     74.04% # attempts to use FU when none available (Count)
system.cpu0.statFuBusy::IntMult                     0      0.00%     74.04% # attempts to use FU when none available (Count)
system.cpu0.statFuBusy::IntDiv                      0      0.00%     74.04% # attempts to use FU when none available (Count)
system.cpu0.statFuBusy::FloatAdd                    0      0.00%     74.04% # attempts to use FU when none available (Count)
system.cpu0.statFuBusy::FloatCmp                    0      0.00%     74.04% # attempts to use FU when none available (Count)
system.cpu0.statFuBusy::FloatCvt                    1      0.00%     74.04% # attempts to use FU when none available (Count)
system.cpu0.statFuBusy::FloatMult                   0      0.00%     74.04% # attempts to use FU when none available (Count)
system.cpu0.statFuBusy::FloatMultAcc                0      0.00%     74.04% # attempts to use FU when none available (Count)
system.cpu0.statFuBusy::FloatDiv                    0      0.00%     74.04% # attempts to use FU when none available (Count)
system.cpu0.statFuBusy::FloatMisc                   0      0.00%     74.04% # attempts to use FU when none available (Count)
system.cpu0.statFuBusy::FloatSqrt                   0      0.00%     74.04% # attempts to use FU when none available (Count)
system.cpu0.statFuBusy::SimdAdd                     0      0.00%     74.04% # attempts to use FU when none available (Count)
system.cpu0.statFuBusy::SimdAddAcc                  0      0.00%     74.04% # attempts to use FU when none available (Count)
system.cpu0.statFuBusy::SimdAlu                   120      0.12%     74.16% # attempts to use FU when none available (Count)
system.cpu0.statFuBusy::SimdCmp                     0      0.00%     74.16% # attempts to use FU when none available (Count)
system.cpu0.statFuBusy::SimdCvt                   130      0.13%     74.29% # attempts to use FU when none available (Count)
system.cpu0.statFuBusy::SimdMisc                    0      0.00%     74.29% # attempts to use FU when none available (Count)
system.cpu0.statFuBusy::SimdMult                    0      0.00%     74.29% # attempts to use FU when none available (Count)
system.cpu0.statFuBusy::SimdMultAcc                 0      0.00%     74.29% # attempts to use FU when none available (Count)
system.cpu0.statFuBusy::SimdShift                 134      0.13%     74.42% # attempts to use FU when none available (Count)
system.cpu0.statFuBusy::SimdShiftAcc                0      0.00%     74.42% # attempts to use FU when none available (Count)
system.cpu0.statFuBusy::SimdDiv                     0      0.00%     74.42% # attempts to use FU when none available (Count)
system.cpu0.statFuBusy::SimdSqrt                    0      0.00%     74.42% # attempts to use FU when none available (Count)
system.cpu0.statFuBusy::SimdFloatAdd                0      0.00%     74.42% # attempts to use FU when none available (Count)
system.cpu0.statFuBusy::SimdFloatAlu                0      0.00%     74.42% # attempts to use FU when none available (Count)
system.cpu0.statFuBusy::SimdFloatCmp                0      0.00%     74.42% # attempts to use FU when none available (Count)
system.cpu0.statFuBusy::SimdFloatCvt                0      0.00%     74.42% # attempts to use FU when none available (Count)
system.cpu0.statFuBusy::SimdFloatDiv                0      0.00%     74.42% # attempts to use FU when none available (Count)
system.cpu0.statFuBusy::SimdFloatMisc               0      0.00%     74.42% # attempts to use FU when none available (Count)
system.cpu0.statFuBusy::SimdFloatMult               0      0.00%     74.42% # attempts to use FU when none available (Count)
system.cpu0.statFuBusy::SimdFloatMultAcc            0      0.00%     74.42% # attempts to use FU when none available (Count)
system.cpu0.statFuBusy::SimdFloatSqrt               0      0.00%     74.42% # attempts to use FU when none available (Count)
system.cpu0.statFuBusy::SimdReduceAdd               0      0.00%     74.42% # attempts to use FU when none available (Count)
system.cpu0.statFuBusy::SimdReduceAlu               0      0.00%     74.42% # attempts to use FU when none available (Count)
system.cpu0.statFuBusy::SimdReduceCmp               0      0.00%     74.42% # attempts to use FU when none available (Count)
system.cpu0.statFuBusy::SimdFloatReduceAdd            0      0.00%     74.42% # attempts to use FU when none available (Count)
system.cpu0.statFuBusy::SimdFloatReduceCmp            0      0.00%     74.42% # attempts to use FU when none available (Count)
system.cpu0.statFuBusy::SimdAes                     0      0.00%     74.42% # attempts to use FU when none available (Count)
system.cpu0.statFuBusy::SimdAesMix                  0      0.00%     74.42% # attempts to use FU when none available (Count)
system.cpu0.statFuBusy::SimdSha1Hash                0      0.00%     74.42% # attempts to use FU when none available (Count)
system.cpu0.statFuBusy::SimdSha1Hash2               0      0.00%     74.42% # attempts to use FU when none available (Count)
system.cpu0.statFuBusy::SimdSha256Hash              0      0.00%     74.42% # attempts to use FU when none available (Count)
system.cpu0.statFuBusy::SimdSha256Hash2             0      0.00%     74.42% # attempts to use FU when none available (Count)
system.cpu0.statFuBusy::SimdShaSigma2               0      0.00%     74.42% # attempts to use FU when none available (Count)
system.cpu0.statFuBusy::SimdShaSigma3               0      0.00%     74.42% # attempts to use FU when none available (Count)
system.cpu0.statFuBusy::SimdPredAlu                 0      0.00%     74.42% # attempts to use FU when none available (Count)
system.cpu0.statFuBusy::MemRead                 12796     12.42%     86.84% # attempts to use FU when none available (Count)
system.cpu0.statFuBusy::MemWrite                11742     11.40%     98.24% # attempts to use FU when none available (Count)
system.cpu0.statFuBusy::FloatMemRead             1362      1.32%     99.56% # attempts to use FU when none available (Count)
system.cpu0.statFuBusy::FloatMemWrite             452      0.44%    100.00% # attempts to use FU when none available (Count)
system.cpu0.statFuBusy::IprAccess                   0      0.00%    100.00% # attempts to use FU when none available (Count)
system.cpu0.statFuBusy::InstPrefetch                0      0.00%    100.00% # attempts to use FU when none available (Count)
system.cpu0.statIssuedInstType_0::No_OpClass        34500      0.16%      0.16% # Number of instructions issued per FU type, per thread (Count)
system.cpu0.statIssuedInstType_0::IntAlu     17010743     78.81%     78.97% # Number of instructions issued per FU type, per thread (Count)
system.cpu0.statIssuedInstType_0::IntMult           35      0.00%     78.97% # Number of instructions issued per FU type, per thread (Count)
system.cpu0.statIssuedInstType_0::IntDiv        38132      0.18%     79.14% # Number of instructions issued per FU type, per thread (Count)
system.cpu0.statIssuedInstType_0::FloatAdd         4229      0.02%     79.16% # Number of instructions issued per FU type, per thread (Count)
system.cpu0.statIssuedInstType_0::FloatCmp            0      0.00%     79.16% # Number of instructions issued per FU type, per thread (Count)
system.cpu0.statIssuedInstType_0::FloatCvt         1440      0.01%     79.17% # Number of instructions issued per FU type, per thread (Count)
system.cpu0.statIssuedInstType_0::FloatMult            0      0.00%     79.17% # Number of instructions issued per FU type, per thread (Count)
system.cpu0.statIssuedInstType_0::FloatMultAcc            0      0.00%     79.17% # Number of instructions issued per FU type, per thread (Count)
system.cpu0.statIssuedInstType_0::FloatDiv            0      0.00%     79.17% # Number of instructions issued per FU type, per thread (Count)
system.cpu0.statIssuedInstType_0::FloatMisc            0      0.00%     79.17% # Number of instructions issued per FU type, per thread (Count)
system.cpu0.statIssuedInstType_0::FloatSqrt            0      0.00%     79.17% # Number of instructions issued per FU type, per thread (Count)
system.cpu0.statIssuedInstType_0::SimdAdd         8265      0.04%     79.21% # Number of instructions issued per FU type, per thread (Count)
system.cpu0.statIssuedInstType_0::SimdAddAcc            0      0.00%     79.21% # Number of instructions issued per FU type, per thread (Count)
system.cpu0.statIssuedInstType_0::SimdAlu        16775      0.08%     79.29% # Number of instructions issued per FU type, per thread (Count)
system.cpu0.statIssuedInstType_0::SimdCmp            0      0.00%     79.29% # Number of instructions issued per FU type, per thread (Count)
system.cpu0.statIssuedInstType_0::SimdCvt        18440      0.09%     79.37% # Number of instructions issued per FU type, per thread (Count)
system.cpu0.statIssuedInstType_0::SimdMisc         8667      0.04%     79.41% # Number of instructions issued per FU type, per thread (Count)
system.cpu0.statIssuedInstType_0::SimdMult            0      0.00%     79.41% # Number of instructions issued per FU type, per thread (Count)
system.cpu0.statIssuedInstType_0::SimdMultAcc            0      0.00%     79.41% # Number of instructions issued per FU type, per thread (Count)
system.cpu0.statIssuedInstType_0::SimdShift         2486      0.01%     79.42% # Number of instructions issued per FU type, per thread (Count)
system.cpu0.statIssuedInstType_0::SimdShiftAcc            0      0.00%     79.42% # Number of instructions issued per FU type, per thread (Count)
system.cpu0.statIssuedInstType_0::SimdDiv            0      0.00%     79.42% # Number of instructions issued per FU type, per thread (Count)
system.cpu0.statIssuedInstType_0::SimdSqrt            0      0.00%     79.42% # Number of instructions issued per FU type, per thread (Count)
system.cpu0.statIssuedInstType_0::SimdFloatAdd            0      0.00%     79.42% # Number of instructions issued per FU type, per thread (Count)
system.cpu0.statIssuedInstType_0::SimdFloatAlu            0      0.00%     79.42% # Number of instructions issued per FU type, per thread (Count)
system.cpu0.statIssuedInstType_0::SimdFloatCmp            0      0.00%     79.42% # Number of instructions issued per FU type, per thread (Count)
system.cpu0.statIssuedInstType_0::SimdFloatCvt            0      0.00%     79.42% # Number of instructions issued per FU type, per thread (Count)
system.cpu0.statIssuedInstType_0::SimdFloatDiv            0      0.00%     79.42% # Number of instructions issued per FU type, per thread (Count)
system.cpu0.statIssuedInstType_0::SimdFloatMisc            0      0.00%     79.42% # Number of instructions issued per FU type, per thread (Count)
system.cpu0.statIssuedInstType_0::SimdFloatMult            0      0.00%     79.42% # Number of instructions issued per FU type, per thread (Count)
system.cpu0.statIssuedInstType_0::SimdFloatMultAcc            0      0.00%     79.42% # Number of instructions issued per FU type, per thread (Count)
system.cpu0.statIssuedInstType_0::SimdFloatSqrt            0      0.00%     79.42% # Number of instructions issued per FU type, per thread (Count)
system.cpu0.statIssuedInstType_0::SimdReduceAdd            0      0.00%     79.42% # Number of instructions issued per FU type, per thread (Count)
system.cpu0.statIssuedInstType_0::SimdReduceAlu            0      0.00%     79.42% # Number of instructions issued per FU type, per thread (Count)
system.cpu0.statIssuedInstType_0::SimdReduceCmp            0      0.00%     79.42% # Number of instructions issued per FU type, per thread (Count)
system.cpu0.statIssuedInstType_0::SimdFloatReduceAdd            0      0.00%     79.42% # Number of instructions issued per FU type, per thread (Count)
system.cpu0.statIssuedInstType_0::SimdFloatReduceCmp            0      0.00%     79.42% # Number of instructions issued per FU type, per thread (Count)
system.cpu0.statIssuedInstType_0::SimdAes            0      0.00%     79.42% # Number of instructions issued per FU type, per thread (Count)
system.cpu0.statIssuedInstType_0::SimdAesMix            0      0.00%     79.42% # Number of instructions issued per FU type, per thread (Count)
system.cpu0.statIssuedInstType_0::SimdSha1Hash            0      0.00%     79.42% # Number of instructions issued per FU type, per thread (Count)
system.cpu0.statIssuedInstType_0::SimdSha1Hash2            0      0.00%     79.42% # Number of instructions issued per FU type, per thread (Count)
system.cpu0.statIssuedInstType_0::SimdSha256Hash            0      0.00%     79.42% # Number of instructions issued per FU type, per thread (Count)
system.cpu0.statIssuedInstType_0::SimdSha256Hash2            0      0.00%     79.42% # Number of instructions issued per FU type, per thread (Count)
system.cpu0.statIssuedInstType_0::SimdShaSigma2            0      0.00%     79.42% # Number of instructions issued per FU type, per thread (Count)
system.cpu0.statIssuedInstType_0::SimdShaSigma3            0      0.00%     79.42% # Number of instructions issued per FU type, per thread (Count)
system.cpu0.statIssuedInstType_0::SimdPredAlu            0      0.00%     79.42% # Number of instructions issued per FU type, per thread (Count)
system.cpu0.statIssuedInstType_0::MemRead      2730309     12.65%     92.07% # Number of instructions issued per FU type, per thread (Count)
system.cpu0.statIssuedInstType_0::MemWrite      1660752      7.69%     99.77% # Number of instructions issued per FU type, per thread (Count)
system.cpu0.statIssuedInstType_0::FloatMemRead        32976      0.15%     99.92% # Number of instructions issued per FU type, per thread (Count)
system.cpu0.statIssuedInstType_0::FloatMemWrite        17688      0.08%    100.00% # Number of instructions issued per FU type, per thread (Count)
system.cpu0.statIssuedInstType_0::IprAccess            0      0.00%    100.00% # Number of instructions issued per FU type, per thread (Count)
system.cpu0.statIssuedInstType_0::InstPrefetch            0      0.00%    100.00% # Number of instructions issued per FU type, per thread (Count)
system.cpu0.statIssuedInstType_0::total      21585437                       # Number of instructions issued per FU type, per thread (Count)
system.cpu0.issueRate                        1.409107                       # Inst issue rate ((Count/Cycle))
system.cpu0.fuBusy                             103000                       # FU busy when requested (Count)
system.cpu0.fuBusyRate                       0.004772                       # FU busy rate (busy events/executed inst) ((Count/Count))
system.cpu0.intInstQueueReads                57298981                       # Number of integer instruction queue reads (Count)
system.cpu0.intInstQueueWrites               23255647                       # Number of integer instruction queue writes (Count)
system.cpu0.intInstQueueWakeupAccesses       21378100                       # Number of integer instruction queue wakeup accesses (Count)
system.cpu0.fpInstQueueReads                   226744                       # Number of floating instruction queue reads (Count)
system.cpu0.fpInstQueueWrites                  173167                       # Number of floating instruction queue writes (Count)
system.cpu0.fpInstQueueWakeupAccesses          108297                       # Number of floating instruction queue wakeup accesses (Count)
system.cpu0.vecInstQueueReads                       0                       # Number of vector instruction queue reads (Count)
system.cpu0.vecInstQueueWrites                      0                       # Number of vector instruction queue writes (Count)
system.cpu0.vecInstQueueWakeupAccesses              0                       # Number of vector instruction queue wakeup accesses (Count)
system.cpu0.intAluAccesses                   21539616                       # Number of integer alu accesses (Count)
system.cpu0.fpAluAccesses                      114321                       # Number of floating point alu accesses (Count)
system.cpu0.vecAluAccesses                          0                       # Number of vector alu accesses (Count)
system.cpu0.numInsts                         21526071                       # Number of executed instructions (Count)
system.cpu0.numLoadInsts                      2751455                       # Number of load instructions executed (Count)
system.cpu0.numSquashedInsts                    59361                       # Number of squashed instructions skipped in execute (Count)
system.cpu0.numSwp                                  0                       # Number of swp insts executed (Count)
system.cpu0.numNop                                  0                       # Number of nop insts executed (Count)
system.cpu0.numRefs                           4427784                       # Number of memory reference insts executed (Count)
system.cpu0.numBranches                       1766548                       # Number of branches executed (Count)
system.cpu0.numStoreInsts                     1676329                       # Number of stores executed (Count)
system.cpu0.numRate                          1.405231                       # Inst execution rate ((Count/Cycle))
system.cpu0.timesIdled                           2222                       # Number of times that the entire CPU went into an idle state and unscheduled itself (Count)
system.cpu0.idleCycles                        1069532                       # Total number of cycles that the CPU has spent unscheduled due to idling (Cycle)
system.cpu0.committedInsts                    9011378                       # Number of Instructions Simulated (Count)
system.cpu0.committedOps                     20748415                       # Number of Ops (including micro ops) Simulated (Count)
system.cpu0.cpi                              1.699909                       # CPI: Cycles Per Instruction ((Cycle/Count))
system.cpu0.totalCpi                         1.699909                       # CPI: Total CPI of All Threads ((Cycle/Count))
system.cpu0.ipc                              0.588267                       # IPC: Instructions Per Cycle ((Count/Cycle))
system.cpu0.totalIpc                         0.588267                       # IPC: Total IPC of All Threads ((Count/Cycle))
system.cpu0.intRegfileReads                  33932194                       # Number of integer regfile reads (Count)
system.cpu0.intRegfileWrites                 17410319                       # Number of integer regfile writes (Count)
system.cpu0.fpRegfileReads                     147670                       # Number of floating regfile reads (Count)
system.cpu0.fpRegfileWrites                     81840                       # Number of floating regfile writes (Count)
system.cpu0.ccRegfileReads                   14407526                       # number of cc regfile reads (Count)
system.cpu0.ccRegfileWrites                  10195317                       # number of cc regfile writes (Count)
system.cpu0.miscRegfileReads                  5712158                       # number of misc regfile reads (Count)
system.cpu0.miscRegfileWrites                     729                       # number of misc regfile writes (Count)
system.cpu0.MemDepUnit__0.insertedLoads       2811557                       # Number of loads inserted to the mem dependence unit. (Count)
system.cpu0.MemDepUnit__0.insertedStores      1707399                       # Number of stores inserted to the mem dependence unit. (Count)
system.cpu0.MemDepUnit__0.conflictingLoads       380600                       # Number of conflicting loads. (Count)
system.cpu0.MemDepUnit__0.conflictingStores       198196                       # Number of conflicting stores. (Count)
system.cpu0.MemDepUnit__1.insertedLoads             0                       # Number of loads inserted to the mem dependence unit. (Count)
system.cpu0.MemDepUnit__1.insertedStores            0                       # Number of stores inserted to the mem dependence unit. (Count)
system.cpu0.MemDepUnit__1.conflictingLoads            0                       # Number of conflicting loads. (Count)
system.cpu0.MemDepUnit__1.conflictingStores            0                       # Number of conflicting stores. (Count)
system.cpu0.MemDepUnit__2.insertedLoads             0                       # Number of loads inserted to the mem dependence unit. (Count)
system.cpu0.MemDepUnit__2.insertedStores            0                       # Number of stores inserted to the mem dependence unit. (Count)
system.cpu0.MemDepUnit__2.conflictingLoads            0                       # Number of conflicting loads. (Count)
system.cpu0.MemDepUnit__2.conflictingStores            0                       # Number of conflicting stores. (Count)
system.cpu0.MemDepUnit__3.insertedLoads             0                       # Number of loads inserted to the mem dependence unit. (Count)
system.cpu0.MemDepUnit__3.insertedStores            0                       # Number of stores inserted to the mem dependence unit. (Count)
system.cpu0.MemDepUnit__3.conflictingLoads            0                       # Number of conflicting loads. (Count)
system.cpu0.MemDepUnit__3.conflictingStores            0                       # Number of conflicting stores. (Count)
system.cpu0.branchPred.lookups                1945313                       # Number of BP lookups (Count)
system.cpu0.branchPred.condPredicted          1879550                       # Number of conditional branches predicted (Count)
system.cpu0.branchPred.condIncorrect            43621                       # Number of conditional branches incorrect (Count)
system.cpu0.branchPred.BTBLookups             1698655                       # Number of BTB lookups (Count)
system.cpu0.branchPred.BTBUpdates               18483                       # Number of BTB updates (Count)
system.cpu0.branchPred.BTBHits                1694836                       # Number of BTB hits (Count)
system.cpu0.branchPred.BTBHitRatio           0.997752                       # BTB Hit Ratio (Ratio)
system.cpu0.branchPred.RASUsed                  15302                       # Number of times the RAS was used to get a target. (Count)
system.cpu0.branchPred.RASIncorrect                 8                       # Number of incorrect RAS predictions. (Count)
system.cpu0.branchPred.indirectLookups           9516                       # Number of indirect predictor lookups. (Count)
system.cpu0.branchPred.indirectHits              5101                       # Number of indirect target hits. (Count)
system.cpu0.branchPred.indirectMisses            4415                       # Number of indirect misses. (Count)
system.cpu0.branchPred.indirectMispredicted         1104                       # Number of mispredicted indirect branches. (Count)
system.cpu0.commit.commitSquashedInsts        1331172                       # The number of squashed insts skipped by commit (Count)
system.cpu0.commit.commitNonSpecStalls            733                       # The number of times commit has been forced to stall to communicate backwards (Count)
system.cpu0.commit.branchMispredicts            36607                       # The number of times a branch was mispredicted (Count)
system.cpu0.commit.numCommittedDist::samples     14053801                       # Number of insts commited each cycle (Count)
system.cpu0.commit.numCommittedDist::mean     1.476356                       # Number of insts commited each cycle (Count)
system.cpu0.commit.numCommittedDist::stdev     2.366997                       # Number of insts commited each cycle (Count)
system.cpu0.commit.numCommittedDist::underflows            0      0.00%      0.00% # Number of insts commited each cycle (Count)
system.cpu0.commit.numCommittedDist::0        8224852     58.52%     58.52% # Number of insts commited each cycle (Count)
system.cpu0.commit.numCommittedDist::1        1967060     14.00%     72.52% # Number of insts commited each cycle (Count)
system.cpu0.commit.numCommittedDist::2         651526      4.64%     77.16% # Number of insts commited each cycle (Count)
system.cpu0.commit.numCommittedDist::3         473575      3.37%     80.53% # Number of insts commited each cycle (Count)
system.cpu0.commit.numCommittedDist::4         692524      4.93%     85.45% # Number of insts commited each cycle (Count)
system.cpu0.commit.numCommittedDist::5         546466      3.89%     89.34% # Number of insts commited each cycle (Count)
system.cpu0.commit.numCommittedDist::6         671468      4.78%     94.12% # Number of insts commited each cycle (Count)
system.cpu0.commit.numCommittedDist::7          84296      0.60%     94.72% # Number of insts commited each cycle (Count)
system.cpu0.commit.numCommittedDist::8         742034      5.28%    100.00% # Number of insts commited each cycle (Count)
system.cpu0.commit.numCommittedDist::overflows            0      0.00%    100.00% # Number of insts commited each cycle (Count)
system.cpu0.commit.numCommittedDist::min_value            0                       # Number of insts commited each cycle (Count)
system.cpu0.commit.numCommittedDist::max_value            8                       # Number of insts commited each cycle (Count)
system.cpu0.commit.numCommittedDist::total     14053801                       # Number of insts commited each cycle (Count)
system.cpu0.commit.instsCommitted             9011378                       # Number of instructions committed (Count)
system.cpu0.commit.opsCommitted              20748415                       # Number of ops (including micro ops) committed (Count)
system.cpu0.commit.memRefs                    4280136                       # Number of memory references committed (Count)
system.cpu0.commit.loads                      2629077                       # Number of loads committed (Count)
system.cpu0.commit.amos                             0                       # Number of atomic instructions committed (Count)
system.cpu0.commit.membars                          0                       # Number of memory barriers committed (Count)
system.cpu0.commit.branches                   1722663                       # Number of branches committed (Count)
system.cpu0.commit.vectorInstructions               0                       # Number of committed Vector instructions. (Count)
system.cpu0.commit.floating                     79719                       # Number of committed floating point instructions. (Count)
system.cpu0.commit.integer                   19535425                       # Number of committed integer instructions. (Count)
system.cpu0.commit.functionCalls                11623                       # Number of function calls committed. (Count)
system.cpu0.commit.committedInstType_0::No_OpClass        19413      0.09%      0.09% # Class of committed instruction (Count)
system.cpu0.commit.committedInstType_0::IntAlu     16368590     78.89%     78.98% # Class of committed instruction (Count)
system.cpu0.commit.committedInstType_0::IntMult           29      0.00%     78.98% # Class of committed instruction (Count)
system.cpu0.commit.committedInstType_0::IntDiv        35785      0.17%     79.16% # Class of committed instruction (Count)
system.cpu0.commit.committedInstType_0::FloatAdd         3076      0.01%     79.17% # Class of committed instruction (Count)
system.cpu0.commit.committedInstType_0::FloatCmp            0      0.00%     79.17% # Class of committed instruction (Count)
system.cpu0.commit.committedInstType_0::FloatCvt         1296      0.01%     79.18% # Class of committed instruction (Count)
system.cpu0.commit.committedInstType_0::FloatMult            0      0.00%     79.18% # Class of committed instruction (Count)
system.cpu0.commit.committedInstType_0::FloatMultAcc            0      0.00%     79.18% # Class of committed instruction (Count)
system.cpu0.commit.committedInstType_0::FloatDiv            0      0.00%     79.18% # Class of committed instruction (Count)
system.cpu0.commit.committedInstType_0::FloatMisc            0      0.00%     79.18% # Class of committed instruction (Count)
system.cpu0.commit.committedInstType_0::FloatSqrt            0      0.00%     79.18% # Class of committed instruction (Count)
system.cpu0.commit.committedInstType_0::SimdAdd         6674      0.03%     79.21% # Class of committed instruction (Count)
system.cpu0.commit.committedInstType_0::SimdAddAcc            0      0.00%     79.21% # Class of committed instruction (Count)
system.cpu0.commit.committedInstType_0::SimdAlu        11967      0.06%     79.27% # Class of committed instruction (Count)
system.cpu0.commit.committedInstType_0::SimdCmp            0      0.00%     79.27% # Class of committed instruction (Count)
system.cpu0.commit.committedInstType_0::SimdCvt        13044      0.06%     79.33% # Class of committed instruction (Count)
system.cpu0.commit.committedInstType_0::SimdMisc         7084      0.03%     79.36% # Class of committed instruction (Count)
system.cpu0.commit.committedInstType_0::SimdMult            0      0.00%     79.36% # Class of committed instruction (Count)
system.cpu0.commit.committedInstType_0::SimdMultAcc            0      0.00%     79.36% # Class of committed instruction (Count)
system.cpu0.commit.committedInstType_0::SimdShift         1321      0.01%     79.37% # Class of committed instruction (Count)
system.cpu0.commit.committedInstType_0::SimdShiftAcc            0      0.00%     79.37% # Class of committed instruction (Count)
system.cpu0.commit.committedInstType_0::SimdDiv            0      0.00%     79.37% # Class of committed instruction (Count)
system.cpu0.commit.committedInstType_0::SimdSqrt            0      0.00%     79.37% # Class of committed instruction (Count)
system.cpu0.commit.committedInstType_0::SimdFloatAdd            0      0.00%     79.37% # Class of committed instruction (Count)
system.cpu0.commit.committedInstType_0::SimdFloatAlu            0      0.00%     79.37% # Class of committed instruction (Count)
system.cpu0.commit.committedInstType_0::SimdFloatCmp            0      0.00%     79.37% # Class of committed instruction (Count)
system.cpu0.commit.committedInstType_0::SimdFloatCvt            0      0.00%     79.37% # Class of committed instruction (Count)
system.cpu0.commit.committedInstType_0::SimdFloatDiv            0      0.00%     79.37% # Class of committed instruction (Count)
system.cpu0.commit.committedInstType_0::SimdFloatMisc            0      0.00%     79.37% # Class of committed instruction (Count)
system.cpu0.commit.committedInstType_0::SimdFloatMult            0      0.00%     79.37% # Class of committed instruction (Count)
system.cpu0.commit.committedInstType_0::SimdFloatMultAcc            0      0.00%     79.37% # Class of committed instruction (Count)
system.cpu0.commit.committedInstType_0::SimdFloatSqrt            0      0.00%     79.37% # Class of committed instruction (Count)
system.cpu0.commit.committedInstType_0::SimdReduceAdd            0      0.00%     79.37% # Class of committed instruction (Count)
system.cpu0.commit.committedInstType_0::SimdReduceAlu            0      0.00%     79.37% # Class of committed instruction (Count)
system.cpu0.commit.committedInstType_0::SimdReduceCmp            0      0.00%     79.37% # Class of committed instruction (Count)
system.cpu0.commit.committedInstType_0::SimdFloatReduceAdd            0      0.00%     79.37% # Class of committed instruction (Count)
system.cpu0.commit.committedInstType_0::SimdFloatReduceCmp            0      0.00%     79.37% # Class of committed instruction (Count)
system.cpu0.commit.committedInstType_0::SimdAes            0      0.00%     79.37% # Class of committed instruction (Count)
system.cpu0.commit.committedInstType_0::SimdAesMix            0      0.00%     79.37% # Class of committed instruction (Count)
system.cpu0.commit.committedInstType_0::SimdSha1Hash            0      0.00%     79.37% # Class of committed instruction (Count)
system.cpu0.commit.committedInstType_0::SimdSha1Hash2            0      0.00%     79.37% # Class of committed instruction (Count)
system.cpu0.commit.committedInstType_0::SimdSha256Hash            0      0.00%     79.37% # Class of committed instruction (Count)
system.cpu0.commit.committedInstType_0::SimdSha256Hash2            0      0.00%     79.37% # Class of committed instruction (Count)
system.cpu0.commit.committedInstType_0::SimdShaSigma2            0      0.00%     79.37% # Class of committed instruction (Count)
system.cpu0.commit.committedInstType_0::SimdShaSigma3            0      0.00%     79.37% # Class of committed instruction (Count)
system.cpu0.commit.committedInstType_0::SimdPredAlu            0      0.00%     79.37% # Class of committed instruction (Count)
system.cpu0.commit.committedInstType_0::MemRead      2608342     12.57%     91.94% # Class of committed instruction (Count)
system.cpu0.commit.committedInstType_0::MemWrite      1637437      7.89%     99.83% # Class of committed instruction (Count)
system.cpu0.commit.committedInstType_0::FloatMemRead        20735      0.10%     99.93% # Class of committed instruction (Count)
system.cpu0.commit.committedInstType_0::FloatMemWrite        13622      0.07%    100.00% # Class of committed instruction (Count)
system.cpu0.commit.committedInstType_0::IprAccess            0      0.00%    100.00% # Class of committed instruction (Count)
system.cpu0.commit.committedInstType_0::InstPrefetch            0      0.00%    100.00% # Class of committed instruction (Count)
system.cpu0.commit.committedInstType_0::total     20748415                       # Class of committed instruction (Count)
system.cpu0.commit.commitEligibleSamples       742034                       # number cycles where commit BW limit reached (Cycle)
system.cpu0.decode.idleCycles                 1218046                       # Number of cycles decode is idle (Cycle)
system.cpu0.decode.blockedCycles              9980942                       # Number of cycles decode is blocked (Cycle)
system.cpu0.decode.runCycles                  1577353                       # Number of cycles decode is running (Cycle)
system.cpu0.decode.unblockCycles              1435240                       # Number of cycles decode is unblocking (Cycle)
system.cpu0.decode.squashCycles                 37414                       # Number of cycles decode is squashing (Cycle)
system.cpu0.decode.branchResolved             1636555                       # Number of times decode resolved a branch (Count)
system.cpu0.decode.branchMispred                 9170                       # Number of times decode detected a branch misprediction (Count)
system.cpu0.decode.decodedInsts              22504473                       # Number of instructions handled by decode (Count)
system.cpu0.decode.squashedInsts                37524                       # Number of squashed instructions handled by decode (Count)
system.cpu0.fetch.icacheStallCycles           1055464                       # Number of cycles fetch is stalled on an Icache miss (Cycle)
system.cpu0.fetch.insts                      10321873                       # Number of instructions fetch has processed (Count)
system.cpu0.fetch.branches                    1945313                       # Number of branches that fetch encountered (Count)
system.cpu0.fetch.predictedBranches           1715239                       # Number of branches that fetch has predicted taken (Count)
system.cpu0.fetch.cycles                     12919103                       # Number of cycles fetch has run and was not squashing or blocked (Cycle)
system.cpu0.fetch.squashCycles                  93118                       # Number of cycles fetch has spent squashing (Cycle)
system.cpu0.fetch.miscStallCycles               12646                       # Number of cycles fetch has spent waiting on interrupts, or bad addresses, or out of MSHRs (Cycle)
system.cpu0.fetch.pendingTrapStallCycles        13790                       # Number of stall cycles due to pending traps (Cycle)
system.cpu0.fetch.icacheWaitRetryStallCycles       201433                       # Number of stall cycles due to full MSHR (Cycle)
system.cpu0.fetch.cacheLines                   856495                       # Number of cache lines fetched (Count)
system.cpu0.fetch.icacheSquashes                 8621                       # Number of outstanding Icache misses that were squashed (Count)
system.cpu0.fetch.nisnDist::samples          14248995                       # Number of instructions fetched each cycle (Total) (Count)
system.cpu0.fetch.nisnDist::mean             1.636001                       # Number of instructions fetched each cycle (Total) (Count)
system.cpu0.fetch.nisnDist::stdev            3.065080                       # Number of instructions fetched each cycle (Total) (Count)
system.cpu0.fetch.nisnDist::underflows              0      0.00%      0.00% # Number of instructions fetched each cycle (Total) (Count)
system.cpu0.fetch.nisnDist::0                10747952     75.43%     75.43% # Number of instructions fetched each cycle (Total) (Count)
system.cpu0.fetch.nisnDist::1                  191895      1.35%     76.78% # Number of instructions fetched each cycle (Total) (Count)
system.cpu0.fetch.nisnDist::2                  113745      0.80%     77.57% # Number of instructions fetched each cycle (Total) (Count)
system.cpu0.fetch.nisnDist::3                  139494      0.98%     78.55% # Number of instructions fetched each cycle (Total) (Count)
system.cpu0.fetch.nisnDist::4                  225008      1.58%     80.13% # Number of instructions fetched each cycle (Total) (Count)
system.cpu0.fetch.nisnDist::5                  162706      1.14%     81.27% # Number of instructions fetched each cycle (Total) (Count)
system.cpu0.fetch.nisnDist::6                  226192      1.59%     82.86% # Number of instructions fetched each cycle (Total) (Count)
system.cpu0.fetch.nisnDist::7                  133233      0.94%     83.80% # Number of instructions fetched each cycle (Total) (Count)
system.cpu0.fetch.nisnDist::8                 2308770     16.20%    100.00% # Number of instructions fetched each cycle (Total) (Count)
system.cpu0.fetch.nisnDist::overflows               0      0.00%    100.00% # Number of instructions fetched each cycle (Total) (Count)
system.cpu0.fetch.nisnDist::min_value               0                       # Number of instructions fetched each cycle (Total) (Count)
system.cpu0.fetch.nisnDist::max_value               8                       # Number of instructions fetched each cycle (Total) (Count)
system.cpu0.fetch.nisnDist::total            14248995                       # Number of instructions fetched each cycle (Total) (Count)
system.cpu0.fetch.branchRate                 0.126991                       # Number of branch fetches per cycle (Ratio)
system.cpu0.fetch.rate                       0.673816                       # Number of inst fetches per cycle ((Count/Cycle))
system.cpu0.iew.idleCycles                          0                       # Number of cycles IEW is idle (Cycle)
system.cpu0.iew.squashCycles                    37414                       # Number of cycles IEW is squashing (Cycle)
system.cpu0.iew.blockCycles                   4939943                       # Number of cycles IEW is blocking (Cycle)
system.cpu0.iew.unblockCycles                  162164                       # Number of cycles IEW is unblocking (Cycle)
system.cpu0.iew.dispatchedInsts              22088499                       # Number of instructions dispatched to IQ (Count)
system.cpu0.iew.dispSquashedInsts               11571                       # Number of squashed instructions skipped by dispatch (Count)
system.cpu0.iew.dispLoadInsts                 2811557                       # Number of dispatched load instructions (Count)
system.cpu0.iew.dispStoreInsts                1707399                       # Number of dispatched store instructions (Count)
system.cpu0.iew.dispNonSpecInsts                  749                       # Number of dispatched non-speculative instructions (Count)
system.cpu0.iew.iqFullEvents                    13318                       # Number of times the IQ has become full, causing a stall (Count)
system.cpu0.iew.lsqFullEvents                  143717                       # Number of times the LSQ has become full, causing a stall (Count)
system.cpu0.iew.memOrderViolationEvents           255                       # Number of memory order violations (Count)
system.cpu0.iew.predictedTakenIncorrect         24658                       # Number of branches that were predicted taken incorrectly (Count)
system.cpu0.iew.predictedNotTakenIncorrect        14102                       # Number of branches that were predicted not taken incorrectly (Count)
system.cpu0.iew.branchMispredicts               38760                       # Number of branch mispredicts detected at execute (Count)
system.cpu0.iew.instsToCommit                21499671                       # Cumulative count of insts sent to commit (Count)
system.cpu0.iew.writebackCount               21486397                       # Cumulative count of insts written-back (Count)
system.cpu0.iew.producerInst                 16357289                       # Number of instructions producing a value (Count)
system.cpu0.iew.consumerInst                 30040796                       # Number of instructions consuming a value (Count)
system.cpu0.iew.wbRate                       1.402641                       # Insts written-back per cycle ((Count/Cycle))
system.cpu0.iew.wbFanout                     0.544503                       # Average fanout of values written-back ((Count/Count))
system.cpu0.interrupts.clk_domain.clock          8000                       # Clock period in ticks (Tick)
system.cpu0.lsq0.forwLoads                     477145                       # Number of loads that had data forwarded from stores (Count)
system.cpu0.lsq0.squashedLoads                 182478                       # Number of loads squashed (Count)
system.cpu0.lsq0.ignoredResponses                  96                       # Number of memory responses ignored because the instruction is squashed (Count)
system.cpu0.lsq0.memOrderViolation                255                       # Number of memory ordering violations (Count)
system.cpu0.lsq0.squashedStores                 56337                       # Number of stores squashed (Count)
system.cpu0.lsq0.rescheduledLoads                2269                       # Number of loads that were rescheduled (Count)
system.cpu0.lsq0.blockedByCache                  2143                       # Number of times an access to memory failed due to the cache being blocked (Count)
system.cpu0.lsq0.loadToUse::samples           2628998                       # Distribution of cycle latency between the first time a load is issued and its completion (Unspecified)
system.cpu0.lsq0.loadToUse::mean            14.551248                       # Distribution of cycle latency between the first time a load is issued and its completion (Unspecified)
system.cpu0.lsq0.loadToUse::stdev           96.164279                       # Distribution of cycle latency between the first time a load is issued and its completion (Unspecified)
system.cpu0.lsq0.loadToUse::0-9               2583330     98.26%     98.26% # Distribution of cycle latency between the first time a load is issued and its completion (Unspecified)
system.cpu0.lsq0.loadToUse::10-19                  73      0.00%     98.27% # Distribution of cycle latency between the first time a load is issued and its completion (Unspecified)
system.cpu0.lsq0.loadToUse::20-29                  79      0.00%     98.27% # Distribution of cycle latency between the first time a load is issued and its completion (Unspecified)
system.cpu0.lsq0.loadToUse::30-39                  78      0.00%     98.27% # Distribution of cycle latency between the first time a load is issued and its completion (Unspecified)
system.cpu0.lsq0.loadToUse::40-49                  75      0.00%     98.27% # Distribution of cycle latency between the first time a load is issued and its completion (Unspecified)
system.cpu0.lsq0.loadToUse::50-59                 185      0.01%     98.28% # Distribution of cycle latency between the first time a load is issued and its completion (Unspecified)
system.cpu0.lsq0.loadToUse::60-69                 123      0.00%     98.29% # Distribution of cycle latency between the first time a load is issued and its completion (Unspecified)
system.cpu0.lsq0.loadToUse::70-79                  93      0.00%     98.29% # Distribution of cycle latency between the first time a load is issued and its completion (Unspecified)
system.cpu0.lsq0.loadToUse::80-89                  73      0.00%     98.29% # Distribution of cycle latency between the first time a load is issued and its completion (Unspecified)
system.cpu0.lsq0.loadToUse::90-99                  75      0.00%     98.30% # Distribution of cycle latency between the first time a load is issued and its completion (Unspecified)
system.cpu0.lsq0.loadToUse::100-109                72      0.00%     98.30% # Distribution of cycle latency between the first time a load is issued and its completion (Unspecified)
system.cpu0.lsq0.loadToUse::110-119                67      0.00%     98.30% # Distribution of cycle latency between the first time a load is issued and its completion (Unspecified)
system.cpu0.lsq0.loadToUse::120-129                80      0.00%     98.30% # Distribution of cycle latency between the first time a load is issued and its completion (Unspecified)
system.cpu0.lsq0.loadToUse::130-139                51      0.00%     98.31% # Distribution of cycle latency between the first time a load is issued and its completion (Unspecified)
system.cpu0.lsq0.loadToUse::140-149                58      0.00%     98.31% # Distribution of cycle latency between the first time a load is issued and its completion (Unspecified)
system.cpu0.lsq0.loadToUse::150-159                48      0.00%     98.31% # Distribution of cycle latency between the first time a load is issued and its completion (Unspecified)
system.cpu0.lsq0.loadToUse::160-169                51      0.00%     98.31% # Distribution of cycle latency between the first time a load is issued and its completion (Unspecified)
system.cpu0.lsq0.loadToUse::170-179               149      0.01%     98.32% # Distribution of cycle latency between the first time a load is issued and its completion (Unspecified)
system.cpu0.lsq0.loadToUse::180-189               576      0.02%     98.34% # Distribution of cycle latency between the first time a load is issued and its completion (Unspecified)
system.cpu0.lsq0.loadToUse::190-199                33      0.00%     98.34% # Distribution of cycle latency between the first time a load is issued and its completion (Unspecified)
system.cpu0.lsq0.loadToUse::200-209                55      0.00%     98.34% # Distribution of cycle latency between the first time a load is issued and its completion (Unspecified)
system.cpu0.lsq0.loadToUse::210-219                56      0.00%     98.34% # Distribution of cycle latency between the first time a load is issued and its completion (Unspecified)
system.cpu0.lsq0.loadToUse::220-229               103      0.00%     98.35% # Distribution of cycle latency between the first time a load is issued and its completion (Unspecified)
system.cpu0.lsq0.loadToUse::230-239               171      0.01%     98.36% # Distribution of cycle latency between the first time a load is issued and its completion (Unspecified)
system.cpu0.lsq0.loadToUse::240-249              1040      0.04%     98.39% # Distribution of cycle latency between the first time a load is issued and its completion (Unspecified)
system.cpu0.lsq0.loadToUse::250-259                68      0.00%     98.40% # Distribution of cycle latency between the first time a load is issued and its completion (Unspecified)
system.cpu0.lsq0.loadToUse::260-269                69      0.00%     98.40% # Distribution of cycle latency between the first time a load is issued and its completion (Unspecified)
system.cpu0.lsq0.loadToUse::270-279                77      0.00%     98.40% # Distribution of cycle latency between the first time a load is issued and its completion (Unspecified)
system.cpu0.lsq0.loadToUse::280-289               184      0.01%     98.41% # Distribution of cycle latency between the first time a load is issued and its completion (Unspecified)
system.cpu0.lsq0.loadToUse::290-299               254      0.01%     98.42% # Distribution of cycle latency between the first time a load is issued and its completion (Unspecified)
system.cpu0.lsq0.loadToUse::overflows           41552      1.58%    100.00% # Distribution of cycle latency between the first time a load is issued and its completion (Unspecified)
system.cpu0.lsq0.loadToUse::min_value               2                       # Distribution of cycle latency between the first time a load is issued and its completion (Unspecified)
system.cpu0.lsq0.loadToUse::max_value            2582                       # Distribution of cycle latency between the first time a load is issued and its completion (Unspecified)
system.cpu0.lsq0.loadToUse::total             2628998                       # Distribution of cycle latency between the first time a load is issued and its completion (Unspecified)
system.cpu0.mmu.dtb.rdAccesses                2745596                       # TLB accesses on read requests (Count)
system.cpu0.mmu.dtb.wrAccesses                1676355                       # TLB accesses on write requests (Count)
system.cpu0.mmu.dtb.rdMisses                     3169                       # TLB misses on read requests (Count)
system.cpu0.mmu.dtb.wrMisses                      427                       # TLB misses on write requests (Count)
system.cpu0.mmu.dtb.walker.power_state.pwrStateResidencyTicks::UNDEFINED   7659263000                       # Cumulative time (in ticks) in various power states (Tick)
system.cpu0.mmu.itb.rdAccesses                      0                       # TLB accesses on read requests (Count)
system.cpu0.mmu.itb.wrAccesses                 858697                       # TLB accesses on write requests (Count)
system.cpu0.mmu.itb.rdMisses                        0                       # TLB misses on read requests (Count)
system.cpu0.mmu.itb.wrMisses                     2752                       # TLB misses on write requests (Count)
system.cpu0.mmu.itb.walker.power_state.pwrStateResidencyTicks::UNDEFINED   7659263000                       # Cumulative time (in ticks) in various power states (Tick)
system.cpu0.power_state.pwrStateResidencyTicks::ON   7659263000                       # Cumulative time (in ticks) in various power states (Tick)
system.cpu0.rename.squashCycles                 37414                       # Number of cycles rename is squashing (Cycle)
system.cpu0.rename.idleCycles                 1720185                       # Number of cycles rename is idle (Cycle)
system.cpu0.rename.blockCycles                6574132                       # Number of cycles rename is blocking (Cycle)
system.cpu0.rename.serializeStallCycles         19790                       # count of cycles rename stalled for serializing inst (Cycle)
system.cpu0.rename.runCycles                  2499004                       # Number of cycles rename is running (Cycle)
system.cpu0.rename.unblockCycles              3398470                       # Number of cycles rename is unblocking (Cycle)
system.cpu0.rename.renamedInsts              22340830                       # Number of instructions processed by rename (Count)
system.cpu0.rename.ROBFullEvents               102590                       # Number of times rename has blocked due to ROB full (Count)
system.cpu0.rename.IQFullEvents               1490304                       # Number of times rename has blocked due to IQ full (Count)
system.cpu0.rename.LQFullEvents                147810                       # Number of times rename has blocked due to LQ full (Count)
system.cpu0.rename.SQFullEvents               1593526                       # Number of times rename has blocked due to SQ full (Count)
system.cpu0.rename.fullRegistersEvents           2815                       # Number of times there has been no free registers (Count)
system.cpu0.rename.renamedOperands           48630832                       # Number of destination operands rename has renamed (Count)
system.cpu0.rename.lookups                   88229488                       # Number of register rename lookups that rename has made (Count)
system.cpu0.rename.intLookups                35485904                       # Number of integer rename lookups (Count)
system.cpu0.rename.fpLookups                   186396                       # Number of floating rename lookups (Count)
system.cpu0.rename.committedMaps             45278909                       # Number of HB maps that are committed (Count)
system.cpu0.rename.undoneMaps                 3351878                       # Number of HB maps that are undone due to squashing (Count)
system.cpu0.rename.serializing                    757                       # count of serializing insts renamed (Count)
system.cpu0.rename.tempSerializing                742                       # count of temporary serializing insts renamed (Count)
system.cpu0.rename.skidInsts                  6701068                       # count of insts added to the skid buffer (Count)
system.cpu0.rob.reads                        35383801                       # The number of ROB reads (Count)
system.cpu0.rob.writes                       44354636                       # The number of ROB writes (Count)
system.cpu0.thread_0.numInsts                 9011378                       # Number of Instructions committed (Count)
system.cpu0.thread_0.numOps                  20748415                       # Number of Ops committed (Count)
system.cpu0.thread_0.numMemRefs                     0                       # Number of Memory References (Count)
system.cpu0.workload.numSyscalls                   62                       # Number of system calls (Count)
system.cpu1.numCycles                        15318527                       # Number of cpu cycles simulated (Cycle)
system.cpu1.numWorkItemsStarted                     0                       # Number of work items this cpu started (Count)
system.cpu1.numWorkItemsCompleted                   0                       # Number of work items this cpu completed (Count)
system.cpu1.instsAdded                       23669620                       # Number of instructions added to the IQ (excludes non-spec) (Count)
system.cpu1.nonSpecInstsAdded                     868                       # Number of non-speculative instructions added to the IQ (Count)
system.cpu1.instsIssued                      23153087                       # Number of instructions issued (Count)
system.cpu1.squashedInstsIssued                  2922                       # Number of squashed instructions issued (Count)
system.cpu1.squashedInstsExamined             1368919                       # Number of squashed instructions iterated over during squash; mainly for profiling (Count)
system.cpu1.squashedOperandsExamined          3051187                       # Number of squashed operands that are examined and possibly removed from graph (Count)
system.cpu1.squashedNonSpecRemoved                135                       # Number of squashed non-spec instructions that were removed (Count)
system.cpu1.numIssuedDist::samples           14346996                       # Number of insts issued each cycle (Count)
system.cpu1.numIssuedDist::mean              1.613793                       # Number of insts issued each cycle (Count)
system.cpu1.numIssuedDist::stdev             2.023793                       # Number of insts issued each cycle (Count)
system.cpu1.numIssuedDist::underflows               0      0.00%      0.00% # Number of insts issued each cycle (Count)
system.cpu1.numIssuedDist::0                  7357757     51.28%     51.28% # Number of insts issued each cycle (Count)
system.cpu1.numIssuedDist::1                  1184043      8.25%     59.54% # Number of insts issued each cycle (Count)
system.cpu1.numIssuedDist::2                  1087034      7.58%     67.11% # Number of insts issued each cycle (Count)
system.cpu1.numIssuedDist::3                  1838010     12.81%     79.93% # Number of insts issued each cycle (Count)
system.cpu1.numIssuedDist::4                  1222186      8.52%     88.44% # Number of insts issued each cycle (Count)
system.cpu1.numIssuedDist::5                   935136      6.52%     94.96% # Number of insts issued each cycle (Count)
system.cpu1.numIssuedDist::6                   424407      2.96%     97.92% # Number of insts issued each cycle (Count)
system.cpu1.numIssuedDist::7                   217304      1.51%     99.43% # Number of insts issued each cycle (Count)
system.cpu1.numIssuedDist::8                    81119      0.57%    100.00% # Number of insts issued each cycle (Count)
system.cpu1.numIssuedDist::overflows                0      0.00%    100.00% # Number of insts issued each cycle (Count)
system.cpu1.numIssuedDist::min_value                0                       # Number of insts issued each cycle (Count)
system.cpu1.numIssuedDist::max_value                8                       # Number of insts issued each cycle (Count)
system.cpu1.numIssuedDist::total             14346996                       # Number of insts issued each cycle (Count)
system.cpu1.statFuBusy::No_OpClass                  0      0.00%      0.00% # attempts to use FU when none available (Count)
system.cpu1.statFuBusy::IntAlu                  79593     74.57%     74.57% # attempts to use FU when none available (Count)
system.cpu1.statFuBusy::IntMult                     0      0.00%     74.57% # attempts to use FU when none available (Count)
system.cpu1.statFuBusy::IntDiv                      0      0.00%     74.57% # attempts to use FU when none available (Count)
system.cpu1.statFuBusy::FloatAdd                    0      0.00%     74.57% # attempts to use FU when none available (Count)
system.cpu1.statFuBusy::FloatCmp                    0      0.00%     74.57% # attempts to use FU when none available (Count)
system.cpu1.statFuBusy::FloatCvt                    0      0.00%     74.57% # attempts to use FU when none available (Count)
system.cpu1.statFuBusy::FloatMult                   0      0.00%     74.57% # attempts to use FU when none available (Count)
system.cpu1.statFuBusy::FloatMultAcc                0      0.00%     74.57% # attempts to use FU when none available (Count)
system.cpu1.statFuBusy::FloatDiv                    0      0.00%     74.57% # attempts to use FU when none available (Count)
system.cpu1.statFuBusy::FloatMisc                   0      0.00%     74.57% # attempts to use FU when none available (Count)
system.cpu1.statFuBusy::FloatSqrt                   0      0.00%     74.57% # attempts to use FU when none available (Count)
system.cpu1.statFuBusy::SimdAdd                     0      0.00%     74.57% # attempts to use FU when none available (Count)
system.cpu1.statFuBusy::SimdAddAcc                  0      0.00%     74.57% # attempts to use FU when none available (Count)
system.cpu1.statFuBusy::SimdAlu                   119      0.11%     74.69% # attempts to use FU when none available (Count)
system.cpu1.statFuBusy::SimdCmp                     0      0.00%     74.69% # attempts to use FU when none available (Count)
system.cpu1.statFuBusy::SimdCvt                   131      0.12%     74.81% # attempts to use FU when none available (Count)
system.cpu1.statFuBusy::SimdMisc                    0      0.00%     74.81% # attempts to use FU when none available (Count)
system.cpu1.statFuBusy::SimdMult                    0      0.00%     74.81% # attempts to use FU when none available (Count)
system.cpu1.statFuBusy::SimdMultAcc                 0      0.00%     74.81% # attempts to use FU when none available (Count)
system.cpu1.statFuBusy::SimdShift                 141      0.13%     74.94% # attempts to use FU when none available (Count)
system.cpu1.statFuBusy::SimdShiftAcc                0      0.00%     74.94% # attempts to use FU when none available (Count)
system.cpu1.statFuBusy::SimdDiv                     0      0.00%     74.94% # attempts to use FU when none available (Count)
system.cpu1.statFuBusy::SimdSqrt                    0      0.00%     74.94% # attempts to use FU when none available (Count)
system.cpu1.statFuBusy::SimdFloatAdd                0      0.00%     74.94% # attempts to use FU when none available (Count)
system.cpu1.statFuBusy::SimdFloatAlu                0      0.00%     74.94% # attempts to use FU when none available (Count)
system.cpu1.statFuBusy::SimdFloatCmp                0      0.00%     74.94% # attempts to use FU when none available (Count)
system.cpu1.statFuBusy::SimdFloatCvt                0      0.00%     74.94% # attempts to use FU when none available (Count)
system.cpu1.statFuBusy::SimdFloatDiv                0      0.00%     74.94% # attempts to use FU when none available (Count)
system.cpu1.statFuBusy::SimdFloatMisc               0      0.00%     74.94% # attempts to use FU when none available (Count)
system.cpu1.statFuBusy::SimdFloatMult               0      0.00%     74.94% # attempts to use FU when none available (Count)
system.cpu1.statFuBusy::SimdFloatMultAcc            0      0.00%     74.94% # attempts to use FU when none available (Count)
system.cpu1.statFuBusy::SimdFloatSqrt               0      0.00%     74.94% # attempts to use FU when none available (Count)
system.cpu1.statFuBusy::SimdReduceAdd               0      0.00%     74.94% # attempts to use FU when none available (Count)
system.cpu1.statFuBusy::SimdReduceAlu               0      0.00%     74.94% # attempts to use FU when none available (Count)
system.cpu1.statFuBusy::SimdReduceCmp               0      0.00%     74.94% # attempts to use FU when none available (Count)
system.cpu1.statFuBusy::SimdFloatReduceAdd            0      0.00%     74.94% # attempts to use FU when none available (Count)
system.cpu1.statFuBusy::SimdFloatReduceCmp            0      0.00%     74.94% # attempts to use FU when none available (Count)
system.cpu1.statFuBusy::SimdAes                     0      0.00%     74.94% # attempts to use FU when none available (Count)
system.cpu1.statFuBusy::SimdAesMix                  0      0.00%     74.94% # attempts to use FU when none available (Count)
system.cpu1.statFuBusy::SimdSha1Hash                0      0.00%     74.94% # attempts to use FU when none available (Count)
system.cpu1.statFuBusy::SimdSha1Hash2               0      0.00%     74.94% # attempts to use FU when none available (Count)
system.cpu1.statFuBusy::SimdSha256Hash              0      0.00%     74.94% # attempts to use FU when none available (Count)
system.cpu1.statFuBusy::SimdSha256Hash2             0      0.00%     74.94% # attempts to use FU when none available (Count)
system.cpu1.statFuBusy::SimdShaSigma2               0      0.00%     74.94% # attempts to use FU when none available (Count)
system.cpu1.statFuBusy::SimdShaSigma3               0      0.00%     74.94% # attempts to use FU when none available (Count)
system.cpu1.statFuBusy::SimdPredAlu                 0      0.00%     74.94% # attempts to use FU when none available (Count)
system.cpu1.statFuBusy::MemRead                 12812     12.00%     86.95% # attempts to use FU when none available (Count)
system.cpu1.statFuBusy::MemWrite                12112     11.35%     98.29% # attempts to use FU when none available (Count)
system.cpu1.statFuBusy::FloatMemRead             1365      1.28%     99.57% # attempts to use FU when none available (Count)
system.cpu1.statFuBusy::FloatMemWrite             456      0.43%    100.00% # attempts to use FU when none available (Count)
system.cpu1.statFuBusy::IprAccess                   0      0.00%    100.00% # attempts to use FU when none available (Count)
system.cpu1.statFuBusy::InstPrefetch                0      0.00%    100.00% # attempts to use FU when none available (Count)
system.cpu1.statIssuedInstType_0::No_OpClass        35885      0.15%      0.15% # Number of instructions issued per FU type, per thread (Count)
system.cpu1.statIssuedInstType_0::IntAlu     18247719     78.81%     78.97% # Number of instructions issued per FU type, per thread (Count)
system.cpu1.statIssuedInstType_0::IntMult           38      0.00%     78.97% # Number of instructions issued per FU type, per thread (Count)
system.cpu1.statIssuedInstType_0::IntDiv        38130      0.16%     79.13% # Number of instructions issued per FU type, per thread (Count)
system.cpu1.statIssuedInstType_0::FloatAdd         4214      0.02%     79.15% # Number of instructions issued per FU type, per thread (Count)
system.cpu1.statIssuedInstType_0::FloatCmp            0      0.00%     79.15% # Number of instructions issued per FU type, per thread (Count)
system.cpu1.statIssuedInstType_0::FloatCvt         1426      0.01%     79.16% # Number of instructions issued per FU type, per thread (Count)
system.cpu1.statIssuedInstType_0::FloatMult            0      0.00%     79.16% # Number of instructions issued per FU type, per thread (Count)
system.cpu1.statIssuedInstType_0::FloatMultAcc            0      0.00%     79.16% # Number of instructions issued per FU type, per thread (Count)
system.cpu1.statIssuedInstType_0::FloatDiv            0      0.00%     79.16% # Number of instructions issued per FU type, per thread (Count)
system.cpu1.statIssuedInstType_0::FloatMisc            0      0.00%     79.16% # Number of instructions issued per FU type, per thread (Count)
system.cpu1.statIssuedInstType_0::FloatSqrt            0      0.00%     79.16% # Number of instructions issued per FU type, per thread (Count)
system.cpu1.statIssuedInstType_0::SimdAdd         8250      0.04%     79.19% # Number of instructions issued per FU type, per thread (Count)
system.cpu1.statIssuedInstType_0::SimdAddAcc            0      0.00%     79.19% # Number of instructions issued per FU type, per thread (Count)
system.cpu1.statIssuedInstType_0::SimdAlu        16776      0.07%     79.27% # Number of instructions issued per FU type, per thread (Count)
system.cpu1.statIssuedInstType_0::SimdCmp            0      0.00%     79.27% # Number of instructions issued per FU type, per thread (Count)
system.cpu1.statIssuedInstType_0::SimdCvt        18393      0.08%     79.35% # Number of instructions issued per FU type, per thread (Count)
system.cpu1.statIssuedInstType_0::SimdMisc         8651      0.04%     79.38% # Number of instructions issued per FU type, per thread (Count)
system.cpu1.statIssuedInstType_0::SimdMult            0      0.00%     79.38% # Number of instructions issued per FU type, per thread (Count)
system.cpu1.statIssuedInstType_0::SimdMultAcc            0      0.00%     79.38% # Number of instructions issued per FU type, per thread (Count)
system.cpu1.statIssuedInstType_0::SimdShift         2483      0.01%     79.39% # Number of instructions issued per FU type, per thread (Count)
system.cpu1.statIssuedInstType_0::SimdShiftAcc            0      0.00%     79.39% # Number of instructions issued per FU type, per thread (Count)
system.cpu1.statIssuedInstType_0::SimdDiv            0      0.00%     79.39% # Number of instructions issued per FU type, per thread (Count)
system.cpu1.statIssuedInstType_0::SimdSqrt            0      0.00%     79.39% # Number of instructions issued per FU type, per thread (Count)
system.cpu1.statIssuedInstType_0::SimdFloatAdd            0      0.00%     79.39% # Number of instructions issued per FU type, per thread (Count)
system.cpu1.statIssuedInstType_0::SimdFloatAlu            0      0.00%     79.39% # Number of instructions issued per FU type, per thread (Count)
system.cpu1.statIssuedInstType_0::SimdFloatCmp            0      0.00%     79.39% # Number of instructions issued per FU type, per thread (Count)
system.cpu1.statIssuedInstType_0::SimdFloatCvt            0      0.00%     79.39% # Number of instructions issued per FU type, per thread (Count)
system.cpu1.statIssuedInstType_0::SimdFloatDiv            0      0.00%     79.39% # Number of instructions issued per FU type, per thread (Count)
system.cpu1.statIssuedInstType_0::SimdFloatMisc            0      0.00%     79.39% # Number of instructions issued per FU type, per thread (Count)
system.cpu1.statIssuedInstType_0::SimdFloatMult            0      0.00%     79.39% # Number of instructions issued per FU type, per thread (Count)
system.cpu1.statIssuedInstType_0::SimdFloatMultAcc            0      0.00%     79.39% # Number of instructions issued per FU type, per thread (Count)
system.cpu1.statIssuedInstType_0::SimdFloatSqrt            0      0.00%     79.39% # Number of instructions issued per FU type, per thread (Count)
system.cpu1.statIssuedInstType_0::SimdReduceAdd            0      0.00%     79.39% # Number of instructions issued per FU type, per thread (Count)
system.cpu1.statIssuedInstType_0::SimdReduceAlu            0      0.00%     79.39% # Number of instructions issued per FU type, per thread (Count)
system.cpu1.statIssuedInstType_0::SimdReduceCmp            0      0.00%     79.39% # Number of instructions issued per FU type, per thread (Count)
system.cpu1.statIssuedInstType_0::SimdFloatReduceAdd            0      0.00%     79.39% # Number of instructions issued per FU type, per thread (Count)
system.cpu1.statIssuedInstType_0::SimdFloatReduceCmp            0      0.00%     79.39% # Number of instructions issued per FU type, per thread (Count)
system.cpu1.statIssuedInstType_0::SimdAes            0      0.00%     79.39% # Number of instructions issued per FU type, per thread (Count)
system.cpu1.statIssuedInstType_0::SimdAesMix            0      0.00%     79.39% # Number of instructions issued per FU type, per thread (Count)
system.cpu1.statIssuedInstType_0::SimdSha1Hash            0      0.00%     79.39% # Number of instructions issued per FU type, per thread (Count)
system.cpu1.statIssuedInstType_0::SimdSha1Hash2            0      0.00%     79.39% # Number of instructions issued per FU type, per thread (Count)
system.cpu1.statIssuedInstType_0::SimdSha256Hash            0      0.00%     79.39% # Number of instructions issued per FU type, per thread (Count)
system.cpu1.statIssuedInstType_0::SimdSha256Hash2            0      0.00%     79.39% # Number of instructions issued per FU type, per thread (Count)
system.cpu1.statIssuedInstType_0::SimdShaSigma2            0      0.00%     79.39% # Number of instructions issued per FU type, per thread (Count)
system.cpu1.statIssuedInstType_0::SimdShaSigma3            0      0.00%     79.39% # Number of instructions issued per FU type, per thread (Count)
system.cpu1.statIssuedInstType_0::SimdPredAlu            0      0.00%     79.39% # Number of instructions issued per FU type, per thread (Count)
system.cpu1.statIssuedInstType_0::MemRead      2925053     12.63%     92.03% # Number of instructions issued per FU type, per thread (Count)
system.cpu1.statIssuedInstType_0::MemWrite      1795416      7.75%     99.78% # Number of instructions issued per FU type, per thread (Count)
system.cpu1.statIssuedInstType_0::FloatMemRead        32953      0.14%     99.92% # Number of instructions issued per FU type, per thread (Count)
system.cpu1.statIssuedInstType_0::FloatMemWrite        17700      0.08%    100.00% # Number of instructions issued per FU type, per thread (Count)
system.cpu1.statIssuedInstType_0::IprAccess            0      0.00%    100.00% # Number of instructions issued per FU type, per thread (Count)
system.cpu1.statIssuedInstType_0::InstPrefetch            0      0.00%    100.00% # Number of instructions issued per FU type, per thread (Count)
system.cpu1.statIssuedInstType_0::total      23153087                       # Number of instructions issued per FU type, per thread (Count)
system.cpu1.issueRate                        1.511443                       # Inst issue rate ((Count/Cycle))
system.cpu1.fuBusy                             106729                       # FU busy when requested (Count)
system.cpu1.fuBusyRate                       0.004610                       # FU busy rate (busy events/executed inst) ((Count/Count))
system.cpu1.intInstQueueReads                60536320                       # Number of integer instruction queue reads (Count)
system.cpu1.intInstQueueWrites               24866624                       # Number of integer instruction queue writes (Count)
system.cpu1.intInstQueueWakeupAccesses       22942304                       # Number of integer instruction queue wakeup accesses (Count)
system.cpu1.fpInstQueueReads                   226499                       # Number of floating instruction queue reads (Count)
system.cpu1.fpInstQueueWrites                  173047                       # Number of floating instruction queue writes (Count)
system.cpu1.fpInstQueueWakeupAccesses          108186                       # Number of floating instruction queue wakeup accesses (Count)
system.cpu1.vecInstQueueReads                       0                       # Number of vector instruction queue reads (Count)
system.cpu1.vecInstQueueWrites                      0                       # Number of vector instruction queue writes (Count)
system.cpu1.vecInstQueueWakeupAccesses              0                       # Number of vector instruction queue wakeup accesses (Count)
system.cpu1.intAluAccesses                   23109728                       # Number of integer alu accesses (Count)
system.cpu1.fpAluAccesses                      114203                       # Number of floating point alu accesses (Count)
system.cpu1.vecAluAccesses                          0                       # Number of vector alu accesses (Count)
system.cpu1.numInsts                         23090933                       # Number of executed instructions (Count)
system.cpu1.numLoadInsts                      2945783                       # Number of load instructions executed (Count)
system.cpu1.numSquashedInsts                    62152                       # Number of squashed instructions skipped in execute (Count)
system.cpu1.numSwp                                  0                       # Number of swp insts executed (Count)
system.cpu1.numNop                                  0                       # Number of nop insts executed (Count)
system.cpu1.numRefs                           4756783                       # Number of memory reference insts executed (Count)
system.cpu1.numBranches                       1891970                       # Number of branches executed (Count)
[...]
system.ruby.network.ext_out_link_utilization      4183635                       (Unspecified)
system.ruby.network.flit_network_latency | 79307317500                       |207808577000                       | 19527702000                       (Unspecified)
system.ruby.network.flit_queueing_latency |  2123873000                       |  2161159500                       |   148042500                       (Unspecified)
system.ruby.network.flits_injected       |      991539     23.70%     23.70% |     2896011     69.22%     92.92% |      296085      7.08%    100.00% (Unspecified)
system.ruby.network.flits_injected::total      4183635                       (Unspecified)
system.ruby.network.flits_received       |      991539     23.70%     23.70% |     2896011     69.22%     92.92% |      296085      7.08%    100.00% (Unspecified)
system.ruby.network.flits_received::total      4183635                       (Unspecified)
system.ruby.network.int_link_utilization     10343868                       (Unspecified)
system.ruby.network.packet_network_latency | 59090852500                       | 68758962500                       | 19527702000                       (Unspecified)
system.ruby.network.packet_queueing_latency |  1741183000                       |   563319500                       |   148042500                       (Unspecified)
system.ruby.network.packets_injected     |      809543     42.27%     42.27% |      809543     42.27%     84.54% |      296085     15.46%    100.00% (Unspecified)
system.ruby.network.packets_injected::total      1915171                       (Unspecified)
system.ruby.network.packets_received     |      809543     42.27%     42.27% |      809543     42.27%     84.54% |      296085     15.46%    100.00% (Unspecified)
system.ruby.network.packets_received::total      1915171                       (Unspecified)
system.ruby.network.routers00.Var_1                 0                       (Unspecified)
system.ruby.network.routers00.Var_2                 0                       (Unspecified)
system.ruby.network.routers00.Var_3                 0                       (Unspecified)
system.ruby.network.routers00.all_counts            0                       (Unspecified)
system.ruby.network.routers00.buffer_reads       660974                       (Unspecified)
system.ruby.network.routers00.buffer_writes       660974                       (Unspecified)
system.ruby.network.routers00.crossbar_activity       660974                       (Unspecified)
system.ruby.network.routers00.detour_counts            0                       (Unspecified)
system.ruby.network.routers00.regular_var            0                       (Unspecified)
system.ruby.network.routers00.risk_counts            0                       (Unspecified)
system.ruby.network.routers00.sw_input_arbiter_activity       665826                       (Unspecified)
system.ruby.network.routers00.sw_output_arbiter_activity       660974                       (Unspecified)
system.ruby.network.routers01.Var_1                 0                       (Unspecified)
system.ruby.network.routers01.Var_2                 0                       (Unspecified)
system.ruby.network.routers01.Var_3                 0                       (Unspecified)
system.ruby.network.routers01.all_counts            0                       (Unspecified)
system.ruby.network.routers01.buffer_reads       922319                       (Unspecified)
system.ruby.network.routers01.buffer_writes       922319                       (Unspecified)
system.ruby.network.routers01.crossbar_activity       922319                       (Unspecified)
system.ruby.network.routers01.detour_counts            0                       (Unspecified)
system.ruby.network.routers01.regular_var            0                       (Unspecified)
system.ruby.network.routers01.risk_counts            0                       (Unspecified)
system.ruby.network.routers01.sw_input_arbiter_activity       932649                       (Unspecified)
system.ruby.network.routers01.sw_output_arbiter_activity       922319                       (Unspecified)
system.ruby.network.routers02.Var_1                 0                       (Unspecified)
system.ruby.network.routers02.Var_2                 0                       (Unspecified)
system.ruby.network.routers02.Var_3                 0                       (Unspecified)
system.ruby.network.routers02.all_counts            0                       (Unspecified)
system.ruby.network.routers02.buffer_reads       926452                       (Unspecified)
system.ruby.network.routers02.buffer_writes       926452                       (Unspecified)
system.ruby.network.routers02.crossbar_activity       926452                       (Unspecified)
system.ruby.network.routers02.detour_counts            0                       (Unspecified)
system.ruby.network.routers02.regular_var            0                       (Unspecified)
system.ruby.network.routers02.risk_counts            0                       (Unspecified)
system.ruby.network.routers02.sw_input_arbiter_activity       936541                       (Unspecified)
system.ruby.network.routers02.sw_output_arbiter_activity       926452                       (Unspecified)
system.ruby.network.routers03.Var_1                 0                       (Unspecified)
system.ruby.network.routers03.Var_2                 0                       (Unspecified)
system.ruby.network.routers03.Var_3                 0                       (Unspecified)
system.ruby.network.routers03.all_counts            0                       (Unspecified)
system.ruby.network.routers03.buffer_reads       652478                       (Unspecified)
system.ruby.network.routers03.buffer_writes       652478                       (Unspecified)
system.ruby.network.routers03.crossbar_activity       652478                       (Unspecified)
system.ruby.network.routers03.detour_counts            0                       (Unspecified)
system.ruby.network.routers03.regular_var            0                       (Unspecified)
system.ruby.network.routers03.risk_counts            0                       (Unspecified)
system.ruby.network.routers03.sw_input_arbiter_activity       657016                       (Unspecified)
system.ruby.network.routers03.sw_output_arbiter_activity       652478                       (Unspecified)
system.ruby.network.routers04.Var_1                 0                       (Unspecified)
system.ruby.network.routers04.Var_2                 0                       (Unspecified)
system.ruby.network.routers04.Var_3                 0                       (Unspecified)
system.ruby.network.routers04.all_counts            0                       (Unspecified)
system.ruby.network.routers04.buffer_reads       905264                       (Unspecified)
system.ruby.network.routers04.buffer_writes       905264                       (Unspecified)
system.ruby.network.routers04.crossbar_activity       905264                       (Unspecified)
system.ruby.network.routers04.detour_counts            0                       (Unspecified)
system.ruby.network.routers04.regular_var            0                       (Unspecified)
system.ruby.network.routers04.risk_counts            0                       (Unspecified)
system.ruby.network.routers04.sw_input_arbiter_activity       914516                       (Unspecified)
system.ruby.network.routers04.sw_output_arbiter_activity       905264                       (Unspecified)
system.ruby.network.routers05.Var_1                 0                       (Unspecified)
system.ruby.network.routers05.Var_2                 0                       (Unspecified)
system.ruby.network.routers05.Var_3                 0                       (Unspecified)
system.ruby.network.routers05.all_counts            0                       (Unspecified)
system.ruby.network.routers05.buffer_reads      1169274                       (Unspecified)
system.ruby.network.routers05.buffer_writes      1169274                       (Unspecified)
system.ruby.network.routers05.crossbar_activity      1169274                       (Unspecified)
system.ruby.network.routers05.detour_counts            0                       (Unspecified)
system.ruby.network.routers05.regular_var            0                       (Unspecified)
system.ruby.network.routers05.risk_counts            0                       (Unspecified)
system.ruby.network.routers05.sw_input_arbiter_activity      1184917                       (Unspecified)
system.ruby.network.routers05.sw_output_arbiter_activity      1169274                       (Unspecified)
system.ruby.network.routers06.Var_1                 0                       (Unspecified)
system.ruby.network.routers06.Var_2                 0                       (Unspecified)
system.ruby.network.routers06.Var_3                 0                       (Unspecified)
system.ruby.network.routers06.all_counts            0                       (Unspecified)
system.ruby.network.routers06.buffer_reads      1169573                       (Unspecified)
system.ruby.network.routers06.buffer_writes      1169573                       (Unspecified)
system.ruby.network.routers06.crossbar_activity      1169573                       (Unspecified)
system.ruby.network.routers06.detour_counts            0                       (Unspecified)
system.ruby.network.routers06.regular_var            0                       (Unspecified)
system.ruby.network.routers06.risk_counts            0                       (Unspecified)
system.ruby.network.routers06.sw_input_arbiter_activity      1185666                       (Unspecified)
system.ruby.network.routers06.sw_output_arbiter_activity      1169573                       (Unspecified)
system.ruby.network.routers07.Var_1                 0                       (Unspecified)
system.ruby.network.routers07.Var_2                 0                       (Unspecified)
system.ruby.network.routers07.Var_3                 0                       (Unspecified)
system.ruby.network.routers07.all_counts            0                       (Unspecified)
system.ruby.network.routers07.buffer_reads       893012                       (Unspecified)
system.ruby.network.routers07.buffer_writes       893012                       (Unspecified)
system.ruby.network.routers07.crossbar_activity       893012                       (Unspecified)
system.ruby.network.routers07.detour_counts            0                       (Unspecified)
system.ruby.network.routers07.regular_var            0                       (Unspecified)
system.ruby.network.routers07.risk_counts            0                       (Unspecified)
system.ruby.network.routers07.sw_input_arbiter_activity       902468                       (Unspecified)
system.ruby.network.routers07.sw_output_arbiter_activity       893012                       (Unspecified)
system.ruby.network.routers08.Var_1                 0                       (Unspecified)
system.ruby.network.routers08.Var_2                 0                       (Unspecified)
system.ruby.network.routers08.Var_3                 0                       (Unspecified)
system.ruby.network.routers08.all_counts            0                       (Unspecified)
system.ruby.network.routers08.buffer_reads       900679                       (Unspecified)
system.ruby.network.routers08.buffer_writes       900679                       (Unspecified)
system.ruby.network.routers08.crossbar_activity       900679                       (Unspecified)
system.ruby.network.routers08.detour_counts            0                       (Unspecified)
system.ruby.network.routers08.regular_var            0                       (Unspecified)
system.ruby.network.routers08.risk_counts            0                       (Unspecified)
system.ruby.network.routers08.sw_input_arbiter_activity       910141                       (Unspecified)
system.ruby.network.routers08.sw_output_arbiter_activity       900679                       (Unspecified)
system.ruby.network.routers09.Var_1                 0                       (Unspecified)
system.ruby.network.routers09.Var_2                 0                       (Unspecified)
system.ruby.network.routers09.Var_3                 0                       (Unspecified)
system.ruby.network.routers09.all_counts            0                       (Unspecified)
system.ruby.network.routers09.buffer_reads      1167912                       (Unspecified)
system.ruby.network.routers09.buffer_writes      1167912                       (Unspecified)
system.ruby.network.routers09.crossbar_activity      1167912                       (Unspecified)
system.ruby.network.routers09.detour_counts            0                       (Unspecified)
system.ruby.network.routers09.regular_var            0                       (Unspecified)
system.ruby.network.routers09.risk_counts            0                       (Unspecified)
system.ruby.network.routers09.sw_input_arbiter_activity      1183112                       (Unspecified)
system.ruby.network.routers09.sw_output_arbiter_activity      1167912                       (Unspecified)
system.ruby.network.routers10.Var_1                 0                       (Unspecified)
system.ruby.network.routers10.Var_2                 0                       (Unspecified)
system.ruby.network.routers10.Var_3                 0                       (Unspecified)
system.ruby.network.routers10.all_counts            0                       (Unspecified)
system.ruby.network.routers10.buffer_reads      1163126                       (Unspecified)
system.ruby.network.routers10.buffer_writes      1163126                       (Unspecified)
system.ruby.network.routers10.crossbar_activity      1163126                       (Unspecified)
system.ruby.network.routers10.detour_counts            0                       (Unspecified)
system.ruby.network.routers10.regular_var            0                       (Unspecified)
system.ruby.network.routers10.risk_counts            0                       (Unspecified)
system.ruby.network.routers10.sw_input_arbiter_activity      1177897                       (Unspecified)
system.ruby.network.routers10.sw_output_arbiter_activity      1163126                       (Unspecified)
system.ruby.network.routers11.Var_1                 0                       (Unspecified)
system.ruby.network.routers11.Var_2                 0                       (Unspecified)
system.ruby.network.routers11.Var_3                 0                       (Unspecified)
system.ruby.network.routers11.all_counts            0                       (Unspecified)
system.ruby.network.routers11.buffer_reads       887673                       (Unspecified)
system.ruby.network.routers11.buffer_writes       887673                       (Unspecified)
system.ruby.network.routers11.crossbar_activity       887673                       (Unspecified)
system.ruby.network.routers11.detour_counts            0                       (Unspecified)
system.ruby.network.routers11.regular_var            0                       (Unspecified)
system.ruby.network.routers11.risk_counts            0                       (Unspecified)
system.ruby.network.routers11.sw_input_arbiter_activity       896553                       (Unspecified)
system.ruby.network.routers11.sw_output_arbiter_activity       887673                       (Unspecified)
system.ruby.network.routers12.Var_1                 0                       (Unspecified)
system.ruby.network.routers12.Var_2                 0                       (Unspecified)
system.ruby.network.routers12.Var_3                 0                       (Unspecified)
system.ruby.network.routers12.all_counts            0                       (Unspecified)
system.ruby.network.routers12.buffer_reads       647705                       (Unspecified)
system.ruby.network.routers12.buffer_writes       647705                       (Unspecified)
system.ruby.network.routers12.crossbar_activity       647705                       (Unspecified)
system.ruby.network.routers12.detour_counts            0                       (Unspecified)
system.ruby.network.routers12.regular_var            0                       (Unspecified)
system.ruby.network.routers12.risk_counts            0                       (Unspecified)
system.ruby.network.routers12.sw_input_arbiter_activity       652014                       (Unspecified)
system.ruby.network.routers12.sw_output_arbiter_activity       647705                       (Unspecified)
system.ruby.network.routers13.Var_1                 0                       (Unspecified)
system.ruby.network.routers13.Var_2                 0                       (Unspecified)
system.ruby.network.routers13.Var_3                 0                       (Unspecified)
system.ruby.network.routers13.all_counts            0                       (Unspecified)
system.ruby.network.routers13.buffer_reads       911771                       (Unspecified)
system.ruby.network.routers13.buffer_writes       911771                       (Unspecified)
system.ruby.network.routers13.crossbar_activity       911771                       (Unspecified)
system.ruby.network.routers13.detour_counts            0                       (Unspecified)
system.ruby.network.routers13.regular_var            0                       (Unspecified)
system.ruby.network.routers13.risk_counts            0                       (Unspecified)
system.ruby.network.routers13.sw_input_arbiter_activity       921253                       (Unspecified)
system.ruby.network.routers13.sw_output_arbiter_activity       911771                       (Unspecified)
system.ruby.network.routers14.Var_1                 0                       (Unspecified)
system.ruby.network.routers14.Var_2                 0                       (Unspecified)
system.ruby.network.routers14.Var_3                 0                       (Unspecified)
system.ruby.network.routers14.all_counts            0                       (Unspecified)
system.ruby.network.routers14.buffer_reads       906604                       (Unspecified)
system.ruby.network.routers14.buffer_writes       906604                       (Unspecified)
system.ruby.network.routers14.crossbar_activity       906604                       (Unspecified)
system.ruby.network.routers14.detour_counts            0                       (Unspecified)
system.ruby.network.routers14.regular_var            0                       (Unspecified)
system.ruby.network.routers14.risk_counts            0                       (Unspecified)
system.ruby.network.routers14.sw_input_arbiter_activity       916041                       (Unspecified)
system.ruby.network.routers14.sw_output_arbiter_activity       906604                       (Unspecified)
system.ruby.network.routers15.Var_1                 0                       (Unspecified)
system.ruby.network.routers15.Var_2                 0                       (Unspecified)
system.ruby.network.routers15.Var_3                 0                       (Unspecified)
system.ruby.network.routers15.all_counts            0                       (Unspecified)
system.ruby.network.routers15.buffer_reads       642687                       (Unspecified)
system.ruby.network.routers15.buffer_writes       642687                       (Unspecified)
system.ruby.network.routers15.crossbar_activity       642687                       (Unspecified)
system.ruby.network.routers15.detour_counts            0                       (Unspecified)
system.ruby.network.routers15.regular_var            0                       (Unspecified)
system.ruby.network.routers15.risk_counts            0                       (Unspecified)
system.ruby.network.routers15.sw_input_arbiter_activity       646827                       (Unspecified)
system.ruby.network.routers15.sw_output_arbiter_activity       642687                       (Unspecified)

---------- End Simulation Statistics   ----------
