
---------- Begin Simulation Statistics ----------
simSeconds                                   0.008145                       # Number of seconds simulated (Second)
simTicks                                   8145204500                       # Number of ticks simulated (Tick)
finalTick                                  8145204500                       # Number of ticks from beginning of simulation (restored from checkpoints and never reset) (Tick)
simFreq                                  1000000000000                       # The number of ticks per simulated second ((Tick/Second))
hostSeconds                                   2242.72                       # Real time elapsed on the host (Second)
hostTickRate                                  3631837                       # The number of ticks simulated per host second (ticks/s) ((Tick/Second))
hostMemory                                   11408160                       # Number of bytes of host memory used (Byte)
simInsts                                    153419795                       # Number of instructions simulated (Count)
simOps                                      354938093                       # Number of ops (including micro ops) simulated (Count)
hostInstRate                                    68408                       # Simulator instruction rate (inst/s) ((Count/Second))
hostOpRate                                     158262                       # Simulator op (including micro ops) rate (op/s) ((Count/Second))
system.clk_domain.clock                          1000                       # Clock period in ticks (Tick)
system.cpu0.numCycles                        16290410                       # Number of cpu cycles simulated (Cycle)
system.cpu0.numWorkItemsStarted                     0                       # Number of work items this cpu started (Count)
system.cpu0.numWorkItemsCompleted                   0                       # Number of work items this cpu completed (Count)
system.cpu0.instsAdded                       22734010                       # Number of instructions added to the IQ (excludes non-spec) (Count)
system.cpu0.nonSpecInstsAdded                     868                       # Number of non-speculative instructions added to the IQ (Count)
system.cpu0.instsIssued                      22228033                       # Number of instructions issued (Count)
system.cpu0.squashedInstsIssued                  2865                       # Number of squashed instructions issued (Count)
system.cpu0.squashedInstsExamined             1366373                       # Number of squashed instructions iterated over during squash; mainly for profiling (Count)
system.cpu0.squashedOperandsExamined          2989839                       # Number of squashed operands that are examined and possibly removed from graph (Count)
system.cpu0.squashedNonSpecRemoved                135                       # Number of squashed non-spec instructions that were removed (Count)
system.cpu0.numIssuedDist::samples           15150623                       # Number of insts issued each cycle (Count)
system.cpu0.numIssuedDist::mean              1.467137                       # Number of insts issued each cycle (Count)
system.cpu0.numIssuedDist::stdev             1.968971                       # Number of insts issued each cycle (Count)
system.cpu0.numIssuedDist::underflows               0      0.00%      0.00% # Number of insts issued each cycle (Count)
system.cpu0.numIssuedDist::0                  8416192     55.55%     55.55% # Number of insts issued each cycle (Count)
system.cpu0.numIssuedDist::1                  1133675      7.48%     63.03% # Number of insts issued each cycle (Count)
system.cpu0.numIssuedDist::2                  1100986      7.27%     70.30% # Number of insts issued each cycle (Count)
system.cpu0.numIssuedDist::3                  1645486     10.86%     81.16% # Number of insts issued each cycle (Count)
system.cpu0.numIssuedDist::4                  1220529      8.06%     89.22% # Number of insts issued each cycle (Count)
system.cpu0.numIssuedDist::5                  1000497      6.60%     95.82% # Number of insts issued each cycle (Count)
system.cpu0.numIssuedDist::6                   426423      2.81%     98.63% # Number of insts issued each cycle (Count)
system.cpu0.numIssuedDist::7                   141891      0.94%     99.57% # Number of insts issued each cycle (Count)
system.cpu0.numIssuedDist::8                    64944      0.43%    100.00% # Number of insts issued each cycle (Count)
system.cpu0.numIssuedDist::overflows                0      0.00%    100.00% # Number of insts issued each cycle (Count)
system.cpu0.numIssuedDist::min_value                0                       # Number of insts issued each cycle (Count)
system.cpu0.numIssuedDist::max_value                8                       # Number of insts issued each cycle (Count)
system.cpu0.numIssuedDist::total             15150623                       # Number of insts issued each cycle (Count)
system.cpu0.statFuBusy::No_OpClass                  0      0.00%      0.00% # attempts to use FU when none available (Count)
system.cpu0.statFuBusy::IntAlu                  49049     66.40%     66.40% # attempts to use FU when none available (Count)
system.cpu0.statFuBusy::IntMult                     0      0.00%     66.40% # attempts to use FU when none available (Count)
system.cpu0.statFuBusy::IntDiv                      0      0.00%     66.40% # attempts to use FU when none available (Count)
system.cpu0.statFuBusy::FloatAdd                    0      0.00%     66.40% # attempts to use FU when none available (Count)
system.cpu0.statFuBusy::FloatCmp                    0      0.00%     66.40% # attempts to use FU when none available (Count)
system.cpu0.statFuBusy::FloatCvt                    1      0.00%     66.40% # attempts to use FU when none available (Count)
system.cpu0.statFuBusy::FloatMult                   0      0.00%     66.40% # attempts to use FU when none available (Count)
system.cpu0.statFuBusy::FloatMultAcc                0      0.00%     66.40% # attempts to use FU when none available (Count)
system.cpu0.statFuBusy::FloatDiv                    0      0.00%     66.40% # attempts to use FU when none available (Count)
system.cpu0.statFuBusy::FloatMisc                   0      0.00%     66.40% # attempts to use FU when none available (Count)
system.cpu0.statFuBusy::FloatSqrt                   0      0.00%     66.40% # attempts to use FU when none available (Count)
system.cpu0.statFuBusy::SimdAdd                     0      0.00%     66.40% # attempts to use FU when none available (Count)
system.cpu0.statFuBusy::SimdAddAcc                  0      0.00%     66.40% # attempts to use FU when none available (Count)
system.cpu0.statFuBusy::SimdAlu                   119      0.16%     66.56% # attempts to use FU when none available (Count)
system.cpu0.statFuBusy::SimdCmp                     0      0.00%     66.56% # attempts to use FU when none available (Count)
system.cpu0.statFuBusy::SimdCvt                   128      0.17%     66.73% # attempts to use FU when none available (Count)
system.cpu0.statFuBusy::SimdMisc                    0      0.00%     66.73% # attempts to use FU when none available (Count)
system.cpu0.statFuBusy::SimdMult                    0      0.00%     66.73% # attempts to use FU when none available (Count)
system.cpu0.statFuBusy::SimdMultAcc                 0      0.00%     66.73% # attempts to use FU when none available (Count)
system.cpu0.statFuBusy::SimdShift                 136      0.18%     66.92% # attempts to use FU when none available (Count)
system.cpu0.statFuBusy::SimdShiftAcc                0      0.00%     66.92% # attempts to use FU when none available (Count)
system.cpu0.statFuBusy::SimdDiv                     0      0.00%     66.92% # attempts to use FU when none available (Count)
system.cpu0.statFuBusy::SimdSqrt                    0      0.00%     66.92% # attempts to use FU when none available (Count)
system.cpu0.statFuBusy::SimdFloatAdd                0      0.00%     66.92% # attempts to use FU when none available (Count)
system.cpu0.statFuBusy::SimdFloatAlu                0      0.00%     66.92% # attempts to use FU when none available (Count)
system.cpu0.statFuBusy::SimdFloatCmp                0      0.00%     66.92% # attempts to use FU when none available (Count)
system.cpu0.statFuBusy::SimdFloatCvt                0      0.00%     66.92% # attempts to use FU when none available (Count)
system.cpu0.statFuBusy::SimdFloatDiv                0      0.00%     66.92% # attempts to use FU when none available (Count)
system.cpu0.statFuBusy::SimdFloatMisc               0      0.00%     66.92% # attempts to use FU when none available (Count)
system.cpu0.statFuBusy::SimdFloatMult               0      0.00%     66.92% # attempts to use FU when none available (Count)
system.cpu0.statFuBusy::SimdFloatMultAcc            0      0.00%     66.92% # attempts to use FU when none available (Count)
system.cpu0.statFuBusy::SimdFloatSqrt               0      0.00%     66.92% # attempts to use FU when none available (Count)
system.cpu0.statFuBusy::SimdReduceAdd               0      0.00%     66.92% # attempts to use FU when none available (Count)
system.cpu0.statFuBusy::SimdReduceAlu               0      0.00%     66.92% # attempts to use FU when none available (Count)
system.cpu0.statFuBusy::SimdReduceCmp               0      0.00%     66.92% # attempts to use FU when none available (Count)
system.cpu0.statFuBusy::SimdFloatReduceAdd            0      0.00%     66.92% # attempts to use FU when none available (Count)
system.cpu0.statFuBusy::SimdFloatReduceCmp            0      0.00%     66.92% # attempts to use FU when none available (Count)
system.cpu0.statFuBusy::SimdAes                     0      0.00%     66.92% # attempts to use FU when none available (Count)
system.cpu0.statFuBusy::SimdAesMix                  0      0.00%     66.92% # attempts to use FU when none available (Count)
system.cpu0.statFuBusy::SimdSha1Hash                0      0.00%     66.92% # attempts to use FU when none available (Count)
system.cpu0.statFuBusy::SimdSha1Hash2               0      0.00%     66.92% # attempts to use FU when none available (Count)
system.cpu0.statFuBusy::SimdSha256Hash              0      0.00%     66.92% # attempts to use FU when none available (Count)
system.cpu0.statFuBusy::SimdSha256Hash2             0      0.00%     66.92% # attempts to use FU when none available (Count)
system.cpu0.statFuBusy::SimdShaSigma2               0      0.00%     66.92% # attempts to use FU when none available (Count)
system.cpu0.statFuBusy::SimdShaSigma3               0      0.00%     66.92% # attempts to use FU when none available (Count)
system.cpu0.statFuBusy::SimdPredAlu                 0      0.00%     66.92% # attempts to use FU when none available (Count)
system.cpu0.statFuBusy::MemRead                 12814     17.35%     84.26% # attempts to use FU when none available (Count)
system.cpu0.statFuBusy::MemWrite                 9806     13.27%     97.54% # attempts to use FU when none available (Count)
system.cpu0.statFuBusy::FloatMemRead             1366      1.85%     99.39% # attempts to use FU when none available (Count)
system.cpu0.statFuBusy::FloatMemWrite             454      0.61%    100.00% # attempts to use FU when none available (Count)
system.cpu0.statFuBusy::IprAccess                   0      0.00%    100.00% # attempts to use FU when none available (Count)
system.cpu0.statFuBusy::InstPrefetch                0      0.00%    100.00% # attempts to use FU when none available (Count)
system.cpu0.statIssuedInstType_0::No_OpClass        39320      0.18%      0.18% # Number of instructions issued per FU type, per thread (Count)
system.cpu0.statIssuedInstType_0::IntAlu     17516349     78.80%     78.98% # Number of instructions issued per FU type, per thread (Count)
system.cpu0.statIssuedInstType_0::IntMult           37      0.00%     78.98% # Number of instructions issued per FU type, per thread (Count)
system.cpu0.statIssuedInstType_0::IntDiv        38130      0.17%     79.15% # Number of instructions issued per FU type, per thread (Count)
system.cpu0.statIssuedInstType_0::FloatAdd         4227      0.02%     79.17% # Number of instructions issued per FU type, per thread (Count)
system.cpu0.statIssuedInstType_0::FloatCmp            0      0.00%     79.17% # Number of instructions issued per FU type, per thread (Count)
system.cpu0.statIssuedInstType_0::FloatCvt         1418      0.01%     79.18% # Number of instructions issued per FU type, per thread (Count)
system.cpu0.statIssuedInstType_0::FloatMult            0      0.00%     79.18% # Number of instructions issued per FU type, per thread (Count)
system.cpu0.statIssuedInstType_0::FloatMultAcc            0      0.00%     79.18% # Number of instructions issued per FU type, per thread (Count)
system.cpu0.statIssuedInstType_0::FloatDiv            0      0.00%     79.18% # Number of instructions issued per FU type, per thread (Count)
system.cpu0.statIssuedInstType_0::FloatMisc            0      0.00%     79.18% # Number of instructions issued per FU type, per thread (Count)
system.cpu0.statIssuedInstType_0::FloatSqrt            0      0.00%     79.18% # Number of instructions issued per FU type, per thread (Count)
system.cpu0.statIssuedInstType_0::SimdAdd         8250      0.04%     79.21% # Number of instructions issued per FU type, per thread (Count)
system.cpu0.statIssuedInstType_0::SimdAddAcc            0      0.00%     79.21% # Number of instructions issued per FU type, per thread (Count)
system.cpu0.statIssuedInstType_0::SimdAlu        16774      0.08%     79.29% # Number of instructions issued per FU type, per thread (Count)
system.cpu0.statIssuedInstType_0::SimdCmp            0      0.00%     79.29% # Number of instructions issued per FU type, per thread (Count)
system.cpu0.statIssuedInstType_0::SimdCvt        18428      0.08%     79.37% # Number of instructions issued per FU type, per thread (Count)
system.cpu0.statIssuedInstType_0::SimdMisc         8644      0.04%     79.41% # Number of instructions issued per FU type, per thread (Count)
system.cpu0.statIssuedInstType_0::SimdMult            0      0.00%     79.41% # Number of instructions issued per FU type, per thread (Count)
system.cpu0.statIssuedInstType_0::SimdMultAcc            0      0.00%     79.41% # Number of instructions issued per FU type, per thread (Count)
system.cpu0.statIssuedInstType_0::SimdShift         2470      0.01%     79.42% # Number of instructions issued per FU type, per thread (Count)
system.cpu0.statIssuedInstType_0::SimdShiftAcc            0      0.00%     79.42% # Number of instructions issued per FU type, per thread (Count)
system.cpu0.statIssuedInstType_0::SimdDiv            0      0.00%     79.42% # Number of instructions issued per FU type, per thread (Count)
system.cpu0.statIssuedInstType_0::SimdSqrt            0      0.00%     79.42% # Number of instructions issued per FU type, per thread (Count)
system.cpu0.statIssuedInstType_0::SimdFloatAdd            0      0.00%     79.42% # Number of instructions issued per FU type, per thread (Count)
system.cpu0.statIssuedInstType_0::SimdFloatAlu            0      0.00%     79.42% # Number of instructions issued per FU type, per thread (Count)
system.cpu0.statIssuedInstType_0::SimdFloatCmp            0      0.00%     79.42% # Number of instructions issued per FU type, per thread (Count)
system.cpu0.statIssuedInstType_0::SimdFloatCvt            0      0.00%     79.42% # Number of instructions issued per FU type, per thread (Count)
system.cpu0.statIssuedInstType_0::SimdFloatDiv            0      0.00%     79.42% # Number of instructions issued per FU type, per thread (Count)
system.cpu0.statIssuedInstType_0::SimdFloatMisc            0      0.00%     79.42% # Number of instructions issued per FU type, per thread (Count)
system.cpu0.statIssuedInstType_0::SimdFloatMult            0      0.00%     79.42% # Number of instructions issued per FU type, per thread (Count)
system.cpu0.statIssuedInstType_0::SimdFloatMultAcc            0      0.00%     79.42% # Number of instructions issued per FU type, per thread (Count)
system.cpu0.statIssuedInstType_0::SimdFloatSqrt            0      0.00%     79.42% # Number of instructions issued per FU type, per thread (Count)
system.cpu0.statIssuedInstType_0::SimdReduceAdd            0      0.00%     79.42% # Number of instructions issued per FU type, per thread (Count)
system.cpu0.statIssuedInstType_0::SimdReduceAlu            0      0.00%     79.42% # Number of instructions issued per FU type, per thread (Count)
system.cpu0.statIssuedInstType_0::SimdReduceCmp            0      0.00%     79.42% # Number of instructions issued per FU type, per thread (Count)
system.cpu0.statIssuedInstType_0::SimdFloatReduceAdd            0      0.00%     79.42% # Number of instructions issued per FU type, per thread (Count)
system.cpu0.statIssuedInstType_0::SimdFloatReduceCmp            0      0.00%     79.42% # Number of instructions issued per FU type, per thread (Count)
system.cpu0.statIssuedInstType_0::SimdAes            0      0.00%     79.42% # Number of instructions issued per FU type, per thread (Count)
system.cpu0.statIssuedInstType_0::SimdAesMix            0      0.00%     79.42% # Number of instructions issued per FU type, per thread (Count)
system.cpu0.statIssuedInstType_0::SimdSha1Hash            0      0.00%     79.42% # Number of instructions issued per FU type, per thread (Count)
system.cpu0.statIssuedInstType_0::SimdSha1Hash2            0      0.00%     79.42% # Number of instructions issued per FU type, per thread (Count)
system.cpu0.statIssuedInstType_0::SimdSha256Hash            0      0.00%     79.42% # Number of instructions issued per FU type, per thread (Count)
system.cpu0.statIssuedInstType_0::SimdSha256Hash2            0      0.00%     79.42% # Number of instructions issued per FU type, per thread (Count)
system.cpu0.statIssuedInstType_0::SimdShaSigma2            0      0.00%     79.42% # Number of instructions issued per FU type, per thread (Count)
system.cpu0.statIssuedInstType_0::SimdShaSigma3            0      0.00%     79.42% # Number of instructions issued per FU type, per thread (Count)
system.cpu0.statIssuedInstType_0::SimdPredAlu            0      0.00%     79.42% # Number of instructions issued per FU type, per thread (Count)
system.cpu0.statIssuedInstType_0::MemRead      2808835     12.64%     92.06% # Number of instructions issued per FU type, per thread (Count)
system.cpu0.statIssuedInstType_0::MemWrite      1714481      7.71%     99.77% # Number of instructions issued per FU type, per thread (Count)
system.cpu0.statIssuedInstType_0::FloatMemRead        32979      0.15%     99.92% # Number of instructions issued per FU type, per thread (Count)
system.cpu0.statIssuedInstType_0::FloatMemWrite        17691      0.08%    100.00% # Number of instructions issued per FU type, per thread (Count)
system.cpu0.statIssuedInstType_0::IprAccess            0      0.00%    100.00% # Number of instructions issued per FU type, per thread (Count)
system.cpu0.statIssuedInstType_0::InstPrefetch            0      0.00%    100.00% # Number of instructions issued per FU type, per thread (Count)
system.cpu0.statIssuedInstType_0::total      22228033                       # Number of instructions issued per FU type, per thread (Count)
system.cpu0.issueRate                        1.364486                       # Inst issue rate ((Count/Cycle))
system.cpu0.fuBusy                              73873                       # FU busy when requested (Count)
system.cpu0.fuBusyRate                       0.003323                       # FU busy rate (busy events/executed inst) ((Count/Count))
system.cpu0.intInstQueueReads                59456843                       # Number of integer instruction queue reads (Count)
system.cpu0.intInstQueueWrites               23928366                       # Number of integer instruction queue writes (Count)
system.cpu0.intInstQueueWakeupAccesses       21999432                       # Number of integer instruction queue wakeup accesses (Count)
system.cpu0.fpInstQueueReads                   226579                       # Number of floating instruction queue reads (Count)
system.cpu0.fpInstQueueWrites                  173155                       # Number of floating instruction queue writes (Count)
system.cpu0.fpInstQueueWakeupAccesses          108229                       # Number of floating instruction queue wakeup accesses (Count)
system.cpu0.vecInstQueueReads                       0                       # Number of vector instruction queue reads (Count)
system.cpu0.vecInstQueueWrites                      0                       # Number of vector instruction queue writes (Count)
system.cpu0.vecInstQueueWakeupAccesses              0                       # Number of vector instruction queue wakeup accesses (Count)
system.cpu0.intAluAccesses                   22148350                       # Number of integer alu accesses (Count)
system.cpu0.fpAluAccesses                      114236                       # Number of floating point alu accesses (Count)
system.cpu0.vecAluAccesses                          0                       # Number of vector alu accesses (Count)
system.cpu0.numInsts                         22147849                       # Number of executed instructions (Count)
system.cpu0.numLoadInsts                      2829884                       # Number of load instructions executed (Count)
system.cpu0.numSquashedInsts                    80179                       # Number of squashed instructions skipped in execute (Count)
system.cpu0.numSwp                                  0                       # Number of swp insts executed (Count)
system.cpu0.numNop                                  0                       # Number of nop insts executed (Count)
system.cpu0.numRefs                           4559963                       # Number of memory reference insts executed (Count)
system.cpu0.numBranches                       1818405                       # Number of branches executed (Count)
system.cpu0.numStoreInsts                     1730079                       # Number of stores executed (Count)
system.cpu0.numRate                          1.359564                       # Inst execution rate ((Count/Cycle))
system.cpu0.timesIdled                           2192                       # Number of times that the entire CPU went into an idle state and unscheduled itself (Count)
system.cpu0.idleCycles                        1139787                       # Total number of cycles that the CPU has spent unscheduled due to idling (Cycle)
system.cpu0.committedInsts                    9260774                       # Number of Instructions Simulated (Count)
system.cpu0.committedOps                     21368423                       # Number of Ops (including micro ops) Simulated (Count)
system.cpu0.cpi                              1.759077                       # CPI: Cycles Per Instruction ((Cycle/Count))
system.cpu0.totalCpi                         1.759077                       # CPI: Total CPI of All Threads ((Cycle/Count))
system.cpu0.ipc                              0.568480                       # IPC: Instructions Per Cycle ((Count/Cycle))
system.cpu0.totalIpc                         0.568480                       # IPC: Total IPC of All Threads ((Count/Cycle))
system.cpu0.intRegfileReads                  34937904                       # Number of integer regfile reads (Count)
system.cpu0.intRegfileWrites                 17913846                       # Number of integer regfile writes (Count)
system.cpu0.fpRegfileReads                     147513                       # Number of floating regfile reads (Count)
system.cpu0.fpRegfileWrites                     81797                       # Number of floating regfile writes (Count)
system.cpu0.ccRegfileReads                   14845283                       # number of cc regfile reads (Count)
system.cpu0.ccRegfileWrites                  10495287                       # number of cc regfile writes (Count)
system.cpu0.miscRegfileReads                  5862905                       # number of misc regfile reads (Count)
system.cpu0.miscRegfileWrites                     729                       # number of misc regfile writes (Count)
system.cpu0.MemDepUnit__0.insertedLoads       2892579                       # Number of loads inserted to the mem dependence unit. (Count)
system.cpu0.MemDepUnit__0.insertedStores      1763255                       # Number of stores inserted to the mem dependence unit. (Count)
system.cpu0.MemDepUnit__0.conflictingLoads       418364                       # Number of conflicting loads. (Count)
system.cpu0.MemDepUnit__0.conflictingStores       230223                       # Number of conflicting stores. (Count)
system.cpu0.MemDepUnit__1.insertedLoads             0                       # Number of loads inserted to the mem dependence unit. (Count)
system.cpu0.MemDepUnit__1.insertedStores            0                       # Number of stores inserted to the mem dependence unit. (Count)
system.cpu0.MemDepUnit__1.conflictingLoads            0                       # Number of conflicting loads. (Count)
system.cpu0.MemDepUnit__1.conflictingStores            0                       # Number of conflicting stores. (Count)
system.cpu0.MemDepUnit__2.insertedLoads             0                       # Number of loads inserted to the mem dependence unit. (Count)
system.cpu0.MemDepUnit__2.insertedStores            0                       # Number of stores inserted to the mem dependence unit. (Count)
system.cpu0.MemDepUnit__2.conflictingLoads            0                       # Number of conflicting loads. (Count)
system.cpu0.MemDepUnit__2.conflictingStores            0                       # Number of conflicting stores. (Count)
system.cpu0.MemDepUnit__3.insertedLoads             0                       # Number of loads inserted to the mem dependence unit. (Count)
system.cpu0.MemDepUnit__3.insertedStores            0                       # Number of stores inserted to the mem dependence unit. (Count)
system.cpu0.MemDepUnit__3.conflictingLoads            0                       # Number of conflicting loads. (Count)
system.cpu0.MemDepUnit__3.conflictingStores            0                       # Number of conflicting stores. (Count)
system.cpu0.branchPred.lookups                1998928                       # Number of BP lookups (Count)
system.cpu0.branchPred.condPredicted          1932620                       # Number of conditional branches predicted (Count)
system.cpu0.branchPred.condIncorrect            44434                       # Number of conditional branches incorrect (Count)
system.cpu0.branchPred.BTBLookups             1751885                       # Number of BTB lookups (Count)
system.cpu0.branchPred.BTBUpdates               18821                       # Number of BTB updates (Count)
system.cpu0.branchPred.BTBHits                1748041                       # Number of BTB hits (Count)
system.cpu0.branchPred.BTBHitRatio           0.997806                       # BTB Hit Ratio (Ratio)
system.cpu0.branchPred.RASUsed                  15367                       # Number of times the RAS was used to get a target. (Count)
system.cpu0.branchPred.RASIncorrect                 6                       # Number of incorrect RAS predictions. (Count)
system.cpu0.branchPred.indirectLookups           9485                       # Number of indirect predictor lookups. (Count)
system.cpu0.branchPred.indirectHits              5090                       # Number of indirect target hits. (Count)
system.cpu0.branchPred.indirectMisses            4395                       # Number of indirect misses. (Count)
system.cpu0.branchPred.indirectMispredicted         1100                       # Number of mispredicted indirect branches. (Count)
system.cpu0.commit.commitSquashedInsts        1357521                       # The number of squashed insts skipped by commit (Count)
system.cpu0.commit.commitNonSpecStalls            733                       # The number of times commit has been forced to stall to communicate backwards (Count)
system.cpu0.commit.branchMispredicts            37305                       # The number of times a branch was mispredicted (Count)
system.cpu0.commit.numCommittedDist::samples     14951966                       # Number of insts commited each cycle (Count)
system.cpu0.commit.numCommittedDist::mean     1.429138                       # Number of insts commited each cycle (Count)
system.cpu0.commit.numCommittedDist::stdev     2.339748                       # Number of insts commited each cycle (Count)
system.cpu0.commit.numCommittedDist::underflows            0      0.00%      0.00% # Number of insts commited each cycle (Count)
system.cpu0.commit.numCommittedDist::0        8934524     59.75%     59.75% # Number of insts commited each cycle (Count)
system.cpu0.commit.numCommittedDist::1        2035058     13.61%     73.37% # Number of insts commited each cycle (Count)
system.cpu0.commit.numCommittedDist::2         673597      4.51%     77.87% # Number of insts commited each cycle (Count)
system.cpu0.commit.numCommittedDist::3         485127      3.24%     81.12% # Number of insts commited each cycle (Count)
system.cpu0.commit.numCommittedDist::4         717636      4.80%     85.91% # Number of insts commited each cycle (Count)
system.cpu0.commit.numCommittedDist::5         582730      3.90%     89.81% # Number of insts commited each cycle (Count)
system.cpu0.commit.numCommittedDist::6         675646      4.52%     94.33% # Number of insts commited each cycle (Count)
system.cpu0.commit.numCommittedDist::7          88464      0.59%     94.92% # Number of insts commited each cycle (Count)
system.cpu0.commit.numCommittedDist::8         759184      5.08%    100.00% # Number of insts commited each cycle (Count)
system.cpu0.commit.numCommittedDist::overflows            0      0.00%    100.00% # Number of insts commited each cycle (Count)
system.cpu0.commit.numCommittedDist::min_value            0                       # Number of insts commited each cycle (Count)
system.cpu0.commit.numCommittedDist::max_value            8                       # Number of insts commited each cycle (Count)
system.cpu0.commit.numCommittedDist::total     14951966                       # Number of insts commited each cycle (Count)
system.cpu0.commit.instsCommitted             9260774                       # Number of instructions committed (Count)
system.cpu0.commit.opsCommitted              21368423                       # Number of ops (including micro ops) committed (Count)
system.cpu0.commit.memRefs                    4411496                       # Number of memory references committed (Count)
system.cpu0.commit.loads                      2707000                       # Number of loads committed (Count)
system.cpu0.commit.amos                             0                       # Number of atomic instructions committed (Count)
system.cpu0.commit.membars                          0                       # Number of memory barriers committed (Count)
system.cpu0.commit.branches                   1772314                       # Number of branches committed (Count)
system.cpu0.commit.vectorInstructions               0                       # Number of committed Vector instructions. (Count)
system.cpu0.commit.floating                     79719                       # Number of committed floating point instructions. (Count)
system.cpu0.commit.integer                   20113911                       # Number of committed integer instructions. (Count)
system.cpu0.commit.functionCalls                11700                       # Number of function calls committed. (Count)
system.cpu0.commit.committedInstType_0::No_OpClass        19598      0.09%      0.09% # Class of committed instruction (Count)
system.cpu0.commit.committedInstType_0::IntAlu     16857053     78.89%     78.98% # Class of committed instruction (Count)
system.cpu0.commit.committedInstType_0::IntMult           29      0.00%     78.98% # Class of committed instruction (Count)
system.cpu0.commit.committedInstType_0::IntDiv        35785      0.17%     79.15% # Class of committed instruction (Count)
system.cpu0.commit.committedInstType_0::FloatAdd         3076      0.01%     79.16% # Class of committed instruction (Count)
system.cpu0.commit.committedInstType_0::FloatCmp            0      0.00%     79.16% # Class of committed instruction (Count)
system.cpu0.commit.committedInstType_0::FloatCvt         1296      0.01%     79.17% # Class of committed instruction (Count)
system.cpu0.commit.committedInstType_0::FloatMult            0      0.00%     79.17% # Class of committed instruction (Count)
system.cpu0.commit.committedInstType_0::FloatMultAcc            0      0.00%     79.17% # Class of committed instruction (Count)
system.cpu0.commit.committedInstType_0::FloatDiv            0      0.00%     79.17% # Class of committed instruction (Count)
system.cpu0.commit.committedInstType_0::FloatMisc            0      0.00%     79.17% # Class of committed instruction (Count)
system.cpu0.commit.committedInstType_0::FloatSqrt            0      0.00%     79.17% # Class of committed instruction (Count)
system.cpu0.commit.committedInstType_0::SimdAdd         6674      0.03%     79.20% # Class of committed instruction (Count)
system.cpu0.commit.committedInstType_0::SimdAddAcc            0      0.00%     79.20% # Class of committed instruction (Count)
system.cpu0.commit.committedInstType_0::SimdAlu        11967      0.06%     79.25% # Class of committed instruction (Count)
system.cpu0.commit.committedInstType_0::SimdCmp            0      0.00%     79.25% # Class of committed instruction (Count)
system.cpu0.commit.committedInstType_0::SimdCvt        13044      0.06%     79.32% # Class of committed instruction (Count)
system.cpu0.commit.committedInstType_0::SimdMisc         7084      0.03%     79.35% # Class of committed instruction (Count)
system.cpu0.commit.committedInstType_0::SimdMult            0      0.00%     79.35% # Class of committed instruction (Count)
system.cpu0.commit.committedInstType_0::SimdMultAcc            0      0.00%     79.35% # Class of committed instruction (Count)
system.cpu0.commit.committedInstType_0::SimdShift         1321      0.01%     79.36% # Class of committed instruction (Count)
system.cpu0.commit.committedInstType_0::SimdShiftAcc            0      0.00%     79.36% # Class of committed instruction (Count)
system.cpu0.commit.committedInstType_0::SimdDiv            0      0.00%     79.36% # Class of committed instruction (Count)
system.cpu0.commit.committedInstType_0::SimdSqrt            0      0.00%     79.36% # Class of committed instruction (Count)
system.cpu0.commit.committedInstType_0::SimdFloatAdd            0      0.00%     79.36% # Class of committed instruction (Count)
system.cpu0.commit.committedInstType_0::SimdFloatAlu            0      0.00%     79.36% # Class of committed instruction (Count)
system.cpu0.commit.committedInstType_0::SimdFloatCmp            0      0.00%     79.36% # Class of committed instruction (Count)
system.cpu0.commit.committedInstType_0::SimdFloatCvt            0      0.00%     79.36% # Class of committed instruction (Count)
system.cpu0.commit.committedInstType_0::SimdFloatDiv            0      0.00%     79.36% # Class of committed instruction (Count)
system.cpu0.commit.committedInstType_0::SimdFloatMisc            0      0.00%     79.36% # Class of committed instruction (Count)
system.cpu0.commit.committedInstType_0::SimdFloatMult            0      0.00%     79.36% # Class of committed instruction (Count)
system.cpu0.commit.committedInstType_0::SimdFloatMultAcc            0      0.00%     79.36% # Class of committed instruction (Count)
system.cpu0.commit.committedInstType_0::SimdFloatSqrt            0      0.00%     79.36% # Class of committed instruction (Count)
system.cpu0.commit.committedInstType_0::SimdReduceAdd            0      0.00%     79.36% # Class of committed instruction (Count)
system.cpu0.commit.committedInstType_0::SimdReduceAlu            0      0.00%     79.36% # Class of committed instruction (Count)
system.cpu0.commit.committedInstType_0::SimdReduceCmp            0      0.00%     79.36% # Class of committed instruction (Count)
system.cpu0.commit.committedInstType_0::SimdFloatReduceAdd            0      0.00%     79.36% # Class of committed instruction (Count)
system.cpu0.commit.committedInstType_0::SimdFloatReduceCmp            0      0.00%     79.36% # Class of committed instruction (Count)
system.cpu0.commit.committedInstType_0::SimdAes            0      0.00%     79.36% # Class of committed instruction (Count)
system.cpu0.commit.committedInstType_0::SimdAesMix            0      0.00%     79.36% # Class of committed instruction (Count)
system.cpu0.commit.committedInstType_0::SimdSha1Hash            0      0.00%     79.36% # Class of committed instruction (Count)
system.cpu0.commit.committedInstType_0::SimdSha1Hash2            0      0.00%     79.36% # Class of committed instruction (Count)
system.cpu0.commit.committedInstType_0::SimdSha256Hash            0      0.00%     79.36% # Class of committed instruction (Count)
system.cpu0.commit.committedInstType_0::SimdSha256Hash2            0      0.00%     79.36% # Class of committed instruction (Count)
system.cpu0.commit.committedInstType_0::SimdShaSigma2            0      0.00%     79.36% # Class of committed instruction (Count)
system.cpu0.commit.committedInstType_0::SimdShaSigma3            0      0.00%     79.36% # Class of committed instruction (Count)
system.cpu0.commit.committedInstType_0::SimdPredAlu            0      0.00%     79.36% # Class of committed instruction (Count)
system.cpu0.commit.committedInstType_0::MemRead      2686265     12.57%     91.93% # Class of committed instruction (Count)
system.cpu0.commit.committedInstType_0::MemWrite      1690874      7.91%     99.84% # Class of committed instruction (Count)
system.cpu0.commit.committedInstType_0::FloatMemRead        20735      0.10%     99.94% # Class of committed instruction (Count)
system.cpu0.commit.committedInstType_0::FloatMemWrite        13622      0.06%    100.00% # Class of committed instruction (Count)
system.cpu0.commit.committedInstType_0::IprAccess            0      0.00%    100.00% # Class of committed instruction (Count)
system.cpu0.commit.committedInstType_0::InstPrefetch            0      0.00%    100.00% # Class of committed instruction (Count)
system.cpu0.commit.committedInstType_0::total     21368423                       # Class of committed instruction (Count)
system.cpu0.commit.commitEligibleSamples       759184                       # number cycles where commit BW limit reached (Cycle)
system.cpu0.decode.idleCycles                 1372488                       # Number of cycles decode is idle (Cycle)
system.cpu0.decode.blockedCycles             10576973                       # Number of cycles decode is blocked (Cycle)
system.cpu0.decode.runCycles                  1761600                       # Number of cycles decode is running (Cycle)
system.cpu0.decode.unblockCycles              1401435                       # Number of cycles decode is unblocking (Cycle)
system.cpu0.decode.squashCycles                 38127                       # Number of cycles decode is squashing (Cycle)
system.cpu0.decode.branchResolved             1687910                       # Number of times decode resolved a branch (Count)
system.cpu0.decode.branchMispred                 9452                       # Number of times decode detected a branch misprediction (Count)
system.cpu0.decode.decodedInsts              23212437                       # Number of instructions handled by decode (Count)
system.cpu0.decode.squashedInsts                38610                       # Number of squashed instructions handled by decode (Count)
system.cpu0.fetch.icacheStallCycles           1200639                       # Number of cycles fetch is stalled on an Icache miss (Cycle)
system.cpu0.fetch.insts                      10582714                       # Number of instructions fetch has processed (Count)
system.cpu0.fetch.branches                    1998928                       # Number of branches that fetch encountered (Count)
system.cpu0.fetch.predictedBranches           1768498                       # Number of branches that fetch has predicted taken (Count)
system.cpu0.fetch.cycles                     13657878                       # Number of cycles fetch has run and was not squashing or blocked (Cycle)
system.cpu0.fetch.squashCycles                  95108                       # Number of cycles fetch has spent squashing (Cycle)
system.cpu0.fetch.miscStallCycles               13323                       # Number of cycles fetch has spent waiting on interrupts, or bad addresses, or out of MSHRs (Cycle)
system.cpu0.fetch.pendingTrapStallCycles        15236                       # Number of stall cycles due to pending traps (Cycle)
system.cpu0.fetch.icacheWaitRetryStallCycles       215993                       # Number of stall cycles due to full MSHR (Cycle)
system.cpu0.fetch.cacheLines                   988910                       # Number of cache lines fetched (Count)
system.cpu0.fetch.icacheSquashes                 6949                       # Number of outstanding Icache misses that were squashed (Count)
system.cpu0.fetch.nisnDist::samples          15150623                       # Number of instructions fetched each cycle (Total) (Count)
system.cpu0.fetch.nisnDist::mean             1.581860                       # Number of instructions fetched each cycle (Total) (Count)
system.cpu0.fetch.nisnDist::stdev            3.005419                       # Number of instructions fetched each cycle (Total) (Count)
system.cpu0.fetch.nisnDist::underflows              0      0.00%      0.00% # Number of instructions fetched each cycle (Total) (Count)
system.cpu0.fetch.nisnDist::0                11548650     76.23%     76.23% # Number of instructions fetched each cycle (Total) (Count)
system.cpu0.fetch.nisnDist::1                   86227      0.57%     76.79% # Number of instructions fetched each cycle (Total) (Count)
system.cpu0.fetch.nisnDist::2                  104097      0.69%     77.48% # Number of instructions fetched each cycle (Total) (Count)
system.cpu0.fetch.nisnDist::3                  304378      2.01%     79.49% # Number of instructions fetched each cycle (Total) (Count)
system.cpu0.fetch.nisnDist::4                  219413      1.45%     80.94% # Number of instructions fetched each cycle (Total) (Count)
system.cpu0.fetch.nisnDist::5                  123854      0.82%     81.76% # Number of instructions fetched each cycle (Total) (Count)
system.cpu0.fetch.nisnDist::6                  384790      2.54%     84.30% # Number of instructions fetched each cycle (Total) (Count)
system.cpu0.fetch.nisnDist::7                   80757      0.53%     84.83% # Number of instructions fetched each cycle (Total) (Count)
system.cpu0.fetch.nisnDist::8                 2298457     15.17%    100.00% # Number of instructions fetched each cycle (Total) (Count)
system.cpu0.fetch.nisnDist::overflows               0      0.00%    100.00% # Number of instructions fetched each cycle (Total) (Count)
system.cpu0.fetch.nisnDist::min_value               0                       # Number of instructions fetched each cycle (Total) (Count)
system.cpu0.fetch.nisnDist::max_value               8                       # Number of instructions fetched each cycle (Total) (Count)
system.cpu0.fetch.nisnDist::total            15150623                       # Number of instructions fetched each cycle (Total) (Count)
system.cpu0.fetch.branchRate                 0.122706                       # Number of branch fetches per cycle (Ratio)
system.cpu0.fetch.rate                       0.649628                       # Number of inst fetches per cycle ((Count/Cycle))
system.cpu0.iew.idleCycles                          0                       # Number of cycles IEW is idle (Cycle)
system.cpu0.iew.squashCycles                    38127                       # Number of cycles IEW is squashing (Cycle)
system.cpu0.iew.blockCycles                   5361296                       # Number of cycles IEW is blocking (Cycle)
system.cpu0.iew.unblockCycles                  161651                       # Number of cycles IEW is unblocking (Cycle)
system.cpu0.iew.dispatchedInsts              22734878                       # Number of instructions dispatched to IQ (Count)
system.cpu0.iew.dispSquashedInsts                1671                       # Number of squashed instructions skipped by dispatch (Count)
system.cpu0.iew.dispLoadInsts                 2892579                       # Number of dispatched load instructions (Count)
system.cpu0.iew.dispStoreInsts                1763255                       # Number of dispatched store instructions (Count)
system.cpu0.iew.dispNonSpecInsts                  749                       # Number of dispatched non-speculative instructions (Count)
system.cpu0.iew.iqFullEvents                     7359                       # Number of times the IQ has become full, causing a stall (Count)
system.cpu0.iew.lsqFullEvents                  149169                       # Number of times the LSQ has become full, causing a stall (Count)
system.cpu0.iew.memOrderViolationEvents           277                       # Number of memory order violations (Count)
system.cpu0.iew.predictedTakenIncorrect         27082                       # Number of branches that were predicted taken incorrectly (Count)
system.cpu0.iew.predictedNotTakenIncorrect        14327                       # Number of branches that were predicted not taken incorrectly (Count)
system.cpu0.iew.branchMispredicts               41409                       # Number of branch mispredicts detected at execute (Count)
system.cpu0.iew.instsToCommit                22123219                       # Cumulative count of insts sent to commit (Count)
system.cpu0.iew.writebackCount               22107661                       # Cumulative count of insts written-back (Count)
system.cpu0.iew.producerInst                 16705262                       # Number of instructions producing a value (Count)
system.cpu0.iew.consumerInst                 30911984                       # Number of instructions consuming a value (Count)
system.cpu0.iew.wbRate                       1.357097                       # Insts written-back per cycle ((Count/Cycle))
system.cpu0.iew.wbFanout                     0.540414                       # Average fanout of values written-back ((Count/Count))
system.cpu0.interrupts.clk_domain.clock          8000                       # Clock period in ticks (Tick)
system.cpu0.lsq0.forwLoads                     494016                       # Number of loads that had data forwarded from stores (Count)
system.cpu0.lsq0.squashedLoads                 185571                       # Number of loads squashed (Count)
system.cpu0.lsq0.ignoredResponses                  95                       # Number of memory responses ignored because the instruction is squashed (Count)
system.cpu0.lsq0.memOrderViolation                277                       # Number of memory ordering violations (Count)
system.cpu0.lsq0.squashedStores                 58757                       # Number of stores squashed (Count)
system.cpu0.lsq0.rescheduledLoads                2357                       # Number of loads that were rescheduled (Count)
system.cpu0.lsq0.blockedByCache                  2112                       # Number of times an access to memory failed due to the cache being blocked (Count)
system.cpu0.lsq0.loadToUse::samples           2706922                       # Distribution of cycle latency between the first time a load is issued and its completion (Unspecified)
system.cpu0.lsq0.loadToUse::mean            15.103737                       # Distribution of cycle latency between the first time a load is issued and its completion (Unspecified)
system.cpu0.lsq0.loadToUse::stdev          101.734395                       # Distribution of cycle latency between the first time a load is issued and its completion (Unspecified)
system.cpu0.lsq0.loadToUse::0-9               2661568     98.32%     98.32% # Distribution of cycle latency between the first time a load is issued and its completion (Unspecified)
system.cpu0.lsq0.loadToUse::10-19                  45      0.00%     98.33% # Distribution of cycle latency between the first time a load is issued and its completion (Unspecified)
system.cpu0.lsq0.loadToUse::20-29                  57      0.00%     98.33% # Distribution of cycle latency between the first time a load is issued and its completion (Unspecified)
system.cpu0.lsq0.loadToUse::30-39                  70      0.00%     98.33% # Distribution of cycle latency between the first time a load is issued and its completion (Unspecified)
system.cpu0.lsq0.loadToUse::40-49                  79      0.00%     98.33% # Distribution of cycle latency between the first time a load is issued and its completion (Unspecified)
system.cpu0.lsq0.loadToUse::50-59                 107      0.00%     98.34% # Distribution of cycle latency between the first time a load is issued and its completion (Unspecified)
system.cpu0.lsq0.loadToUse::60-69                  93      0.00%     98.34% # Distribution of cycle latency between the first time a load is issued and its completion (Unspecified)
system.cpu0.lsq0.loadToUse::70-79                  54      0.00%     98.34% # Distribution of cycle latency between the first time a load is issued and its completion (Unspecified)
system.cpu0.lsq0.loadToUse::80-89                  63      0.00%     98.35% # Distribution of cycle latency between the first time a load is issued and its completion (Unspecified)
system.cpu0.lsq0.loadToUse::90-99                  42      0.00%     98.35% # Distribution of cycle latency between the first time a load is issued and its completion (Unspecified)
system.cpu0.lsq0.loadToUse::100-109                44      0.00%     98.35% # Distribution of cycle latency between the first time a load is issued and its completion (Unspecified)
system.cpu0.lsq0.loadToUse::110-119                69      0.00%     98.35% # Distribution of cycle latency between the first time a load is issued and its completion (Unspecified)
system.cpu0.lsq0.loadToUse::120-129                73      0.00%     98.35% # Distribution of cycle latency between the first time a load is issued and its completion (Unspecified)
system.cpu0.lsq0.loadToUse::130-139                36      0.00%     98.36% # Distribution of cycle latency between the first time a load is issued and its completion (Unspecified)
system.cpu0.lsq0.loadToUse::140-149                50      0.00%     98.36% # Distribution of cycle latency between the first time a load is issued and its completion (Unspecified)
system.cpu0.lsq0.loadToUse::150-159                69      0.00%     98.36% # Distribution of cycle latency between the first time a load is issued and its completion (Unspecified)
system.cpu0.lsq0.loadToUse::160-169                78      0.00%     98.36% # Distribution of cycle latency between the first time a load is issued and its completion (Unspecified)
system.cpu0.lsq0.loadToUse::170-179               150      0.01%     98.37% # Distribution of cycle latency between the first time a load is issued and its completion (Unspecified)
system.cpu0.lsq0.loadToUse::180-189               568      0.02%     98.39% # Distribution of cycle latency between the first time a load is issued and its completion (Unspecified)
system.cpu0.lsq0.loadToUse::190-199                49      0.00%     98.39% # Distribution of cycle latency between the first time a load is issued and its completion (Unspecified)
system.cpu0.lsq0.loadToUse::200-209                49      0.00%     98.39% # Distribution of cycle latency between the first time a load is issued and its completion (Unspecified)
system.cpu0.lsq0.loadToUse::210-219                45      0.00%     98.39% # Distribution of cycle latency between the first time a load is issued and its completion (Unspecified)
system.cpu0.lsq0.loadToUse::220-229                73      0.00%     98.40% # Distribution of cycle latency between the first time a load is issued and its completion (Unspecified)
system.cpu0.lsq0.loadToUse::230-239               109      0.00%     98.40% # Distribution of cycle latency between the first time a load is issued and its completion (Unspecified)
system.cpu0.lsq0.loadToUse::240-249               548      0.02%     98.42% # Distribution of cycle latency between the first time a load is issued and its completion (Unspecified)
system.cpu0.lsq0.loadToUse::250-259                32      0.00%     98.42% # Distribution of cycle latency between the first time a load is issued and its completion (Unspecified)
system.cpu0.lsq0.loadToUse::260-269                34      0.00%     98.42% # Distribution of cycle latency between the first time a load is issued and its completion (Unspecified)
system.cpu0.lsq0.loadToUse::270-279                51      0.00%     98.43% # Distribution of cycle latency between the first time a load is issued and its completion (Unspecified)
system.cpu0.lsq0.loadToUse::280-289                86      0.00%     98.43% # Distribution of cycle latency between the first time a load is issued and its completion (Unspecified)
system.cpu0.lsq0.loadToUse::290-299               110      0.00%     98.43% # Distribution of cycle latency between the first time a load is issued and its completion (Unspecified)
system.cpu0.lsq0.loadToUse::overflows           42421      1.57%    100.00% # Distribution of cycle latency between the first time a load is issued and its completion (Unspecified)
system.cpu0.lsq0.loadToUse::min_value               2                       # Distribution of cycle latency between the first time a load is issued and its completion (Unspecified)
system.cpu0.lsq0.loadToUse::max_value            2636                       # Distribution of cycle latency between the first time a load is issued and its completion (Unspecified)
system.cpu0.lsq0.loadToUse::total             2706922                       # Distribution of cycle latency between the first time a load is issued and its completion (Unspecified)
system.cpu0.mmu.dtb.rdAccesses                2824070                       # TLB accesses on read requests (Count)
system.cpu0.mmu.dtb.wrAccesses                1730106                       # TLB accesses on write requests (Count)
system.cpu0.mmu.dtb.rdMisses                     3156                       # TLB misses on read requests (Count)
system.cpu0.mmu.dtb.wrMisses                      443                       # TLB misses on write requests (Count)
system.cpu0.mmu.dtb.walker.power_state.pwrStateResidencyTicks::UNDEFINED   8145204500                       # Cumulative time (in ticks) in various power states (Tick)
system.cpu0.mmu.itb.rdAccesses                      0                       # TLB accesses on read requests (Count)
system.cpu0.mmu.itb.wrAccesses                 991275                       # TLB accesses on write requests (Count)
system.cpu0.mmu.itb.rdMisses                        0                       # TLB misses on read requests (Count)
system.cpu0.mmu.itb.wrMisses                     2941                       # TLB misses on write requests (Count)
system.cpu0.mmu.itb.walker.power_state.pwrStateResidencyTicks::UNDEFINED   8145204500                       # Cumulative time (in ticks) in various power states (Tick)
system.cpu0.power_state.pwrStateResidencyTicks::ON   8145204500                       # Cumulative time (in ticks) in various power states (Tick)
system.cpu0.rename.squashCycles                 38127                       # Number of cycles rename is squashing (Cycle)
system.cpu0.rename.idleCycles                 1835422                       # Number of cycles rename is idle (Cycle)
system.cpu0.rename.blockCycles                7161486                       # Number of cycles rename is blocking (Cycle)
system.cpu0.rename.serializeStallCycles         21754                       # count of cycles rename stalled for serializing inst (Cycle)
system.cpu0.rename.runCycles                  2683763                       # Number of cycles rename is running (Cycle)
system.cpu0.rename.unblockCycles              3410071                       # Number of cycles rename is unblocking (Cycle)
system.cpu0.rename.renamedInsts              23035190                       # Number of instructions processed by rename (Count)
system.cpu0.rename.ROBFullEvents               113902                       # Number of times rename has blocked due to ROB full (Count)
system.cpu0.rename.IQFullEvents               1422107                       # Number of times rename has blocked due to IQ full (Count)
system.cpu0.rename.LQFullEvents                163888                       # Number of times rename has blocked due to LQ full (Count)
system.cpu0.rename.SQFullEvents               1661138                       # Number of times rename has blocked due to SQ full (Count)
system.cpu0.rename.fullRegistersEvents           3021                       # Number of times there has been no free registers (Count)
system.cpu0.rename.renamedOperands           50191086                       # Number of destination operands rename has renamed (Count)
system.cpu0.rename.lookups                   90996708                       # Number of register rename lookups that rename has made (Count)
system.cpu0.rename.intLookups                36632581                       # Number of integer rename lookups (Count)
system.cpu0.rename.fpLookups                   186554                       # Number of floating rename lookups (Count)
system.cpu0.rename.committedMaps             46643261                       # Number of HB maps that are committed (Count)
system.cpu0.rename.undoneMaps                 3547597                       # Number of HB maps that are undone due to squashing (Count)
system.cpu0.rename.serializing                    757                       # count of serializing insts renamed (Count)
system.cpu0.rename.tempSerializing                742                       # count of temporary serializing insts renamed (Count)
system.cpu0.rename.skidInsts                  6367680                       # count of insts added to the skid buffer (Count)
system.cpu0.rob.reads                        36911186                       # The number of ROB reads (Count)
system.cpu0.rob.writes                       45650873                       # The number of ROB writes (Count)
system.cpu0.thread_0.numInsts                 9260774                       # Number of Instructions committed (Count)
system.cpu0.thread_0.numOps                  21368423                       # Number of Ops committed (Count)
system.cpu0.thread_0.numMemRefs                     0                       # Number of Memory References (Count)
system.cpu0.workload.numSyscalls                   62                       # Number of system calls (Count)
system.cpu1.numCycles                        16290410                       # Number of cpu cycles simulated (Cycle)
system.cpu1.numWorkItemsStarted                     0                       # Number of work items this cpu started (Count)
system.cpu1.numWorkItemsCompleted                   0                       # Number of work items this cpu completed (Count)
system.cpu1.instsAdded                       23871118                       # Number of instructions added to the IQ (excludes non-spec) (Count)
system.cpu1.nonSpecInstsAdded                     866                       # Number of non-speculative instructions added to the IQ (Count)
system.cpu1.instsIssued                      23355506                       # Number of instructions issued (Count)
system.cpu1.squashedInstsIssued                  2837                       # Number of squashed instructions issued (Count)
system.cpu1.squashedInstsExamined             1387633                       # Number of squashed instructions iterated over during squash; mainly for profiling (Count)
system.cpu1.squashedOperandsExamined          3038762                       # Number of squashed operands that are examined and possibly removed from graph (Count)
system.cpu1.squashedNonSpecRemoved                133                       # Number of squashed non-spec instructions that were removed (Count)
system.cpu1.numIssuedDist::samples           15219392                       # Number of insts issued each cycle (Count)
system.cpu1.numIssuedDist::mean              1.534589                       # Number of insts issued each cycle (Count)
system.cpu1.numIssuedDist::stdev             1.985714                       # Number of insts issued each cycle (Count)
system.cpu1.numIssuedDist::underflows               0      0.00%      0.00% # Number of insts issued each cycle (Count)
system.cpu1.numIssuedDist::0                  8138670     53.48%     53.48% # Number of insts issued each cycle (Count)
system.cpu1.numIssuedDist::1                  1191064      7.83%     61.30% # Number of insts issued each cycle (Count)
system.cpu1.numIssuedDist::2                  1155874      7.59%     68.90% # Number of insts issued each cycle (Count)
system.cpu1.numIssuedDist::3                  1734691     11.40%     80.29% # Number of insts issued each cycle (Count)
system.cpu1.numIssuedDist::4                  1285290      8.45%     88.74% # Number of insts issued each cycle (Count)
system.cpu1.numIssuedDist::5                  1055050      6.93%     95.67% # Number of insts issued each cycle (Count)
system.cpu1.numIssuedDist::6                   445714      2.93%     98.60% # Number of insts issued each cycle (Count)
system.cpu1.numIssuedDist::7                   146385      0.96%     99.56% # Number of insts issued each cycle (Count)
system.cpu1.numIssuedDist::8                    66654      0.44%    100.00% # Number of insts issued each cycle (Count)
system.cpu1.numIssuedDist::overflows                0      0.00%    100.00% # Number of insts issued each cycle (Count)
system.cpu1.numIssuedDist::min_value                0                       # Number of insts issued each cycle (Count)
system.cpu1.numIssuedDist::max_value                8                       # Number of insts issued each cycle (Count)
system.cpu1.numIssuedDist::total             15219392                       # Number of insts issued each cycle (Count)
system.cpu1.statFuBusy::No_OpClass                  0      0.00%      0.00% # attempts to use FU when none available (Count)
system.cpu1.statFuBusy::IntAlu                  49370     66.44%     66.44% # attempts to use FU when none available (Count)
system.cpu1.statFuBusy::IntMult                     0      0.00%     66.44% # attempts to use FU when none available (Count)
system.cpu1.statFuBusy::IntDiv                      0      0.00%     66.44% # attempts to use FU when none available (Count)
system.cpu1.statFuBusy::FloatAdd                    0      0.00%     66.44% # attempts to use FU when none available (Count)
system.cpu1.statFuBusy::FloatCmp                    0      0.00%     66.44% # attempts to use FU when none available (Count)
system.cpu1.statFuBusy::FloatCvt                    0      0.00%     66.44% # attempts to use FU when none available (Count)
system.cpu1.statFuBusy::FloatMult                   0      0.00%     66.44% # attempts to use FU when none available (Count)
system.cpu1.statFuBusy::FloatMultAcc                0      0.00%     66.44% # attempts to use FU when none available (Count)
system.cpu1.statFuBusy::FloatDiv                    0      0.00%     66.44% # attempts to use FU when none available (Count)
system.cpu1.statFuBusy::FloatMisc                   0      0.00%     66.44% # attempts to use FU when none available (Count)
system.cpu1.statFuBusy::FloatSqrt                   0      0.00%     66.44% # attempts to use FU when none available (Count)
system.cpu1.statFuBusy::SimdAdd                     0      0.00%     66.44% # attempts to use FU when none available (Count)
system.cpu1.statFuBusy::SimdAddAcc                  0      0.00%     66.44% # attempts to use FU when none available (Count)
system.cpu1.statFuBusy::SimdAlu                   119      0.16%     66.60% # attempts to use FU when none available (Count)
system.cpu1.statFuBusy::SimdCmp                     0      0.00%     66.60% # attempts to use FU when none available (Count)
system.cpu1.statFuBusy::SimdCvt                   138      0.19%     66.79% # attempts to use FU when none available (Count)
system.cpu1.statFuBusy::SimdMisc                    0      0.00%     66.79% # attempts to use FU when none available (Count)
system.cpu1.statFuBusy::SimdMult                    0      0.00%     66.79% # attempts to use FU when none available (Count)
system.cpu1.statFuBusy::SimdMultAcc                 0      0.00%     66.79% # attempts to use FU when none available (Count)
system.cpu1.statFuBusy::SimdShift                 140      0.19%     66.98% # attempts to use FU when none available (Count)
system.cpu1.statFuBusy::SimdShiftAcc                0      0.00%     66.98% # attempts to use FU when none available (Count)
system.cpu1.statFuBusy::SimdDiv                     0      0.00%     66.98% # attempts to use FU when none available (Count)
system.cpu1.statFuBusy::SimdSqrt                    0      0.00%     66.98% # attempts to use FU when none available (Count)
system.cpu1.statFuBusy::SimdFloatAdd                0      0.00%     66.98% # attempts to use FU when none available (Count)
system.cpu1.statFuBusy::SimdFloatAlu                0      0.00%     66.98% # attempts to use FU when none available (Count)
system.cpu1.statFuBusy::SimdFloatCmp                0      0.00%     66.98% # attempts to use FU when none available (Count)
system.cpu1.statFuBusy::SimdFloatCvt                0      0.00%     66.98% # attempts to use FU when none available (Count)
system.cpu1.statFuBusy::SimdFloatDiv                0      0.00%     66.98% # attempts to use FU when none available (Count)
system.cpu1.statFuBusy::SimdFloatMisc               0      0.00%     66.98% # attempts to use FU when none available (Count)
system.cpu1.statFuBusy::SimdFloatMult               0      0.00%     66.98% # attempts to use FU when none available (Count)
system.cpu1.statFuBusy::SimdFloatMultAcc            0      0.00%     66.98% # attempts to use FU when none available (Count)
system.cpu1.statFuBusy::SimdFloatSqrt               0      0.00%     66.98% # attempts to use FU when none available (Count)
system.cpu1.statFuBusy::SimdReduceAdd               0      0.00%     66.98% # attempts to use FU when none available (Count)
system.cpu1.statFuBusy::SimdReduceAlu               0      0.00%     66.98% # attempts to use FU when none available (Count)
system.cpu1.statFuBusy::SimdReduceCmp               0      0.00%     66.98% # attempts to use FU when none available (Count)
system.cpu1.statFuBusy::SimdFloatReduceAdd            0      0.00%     66.98% # attempts to use FU when none available (Count)
system.cpu1.statFuBusy::SimdFloatReduceCmp            0      0.00%     66.98% # attempts to use FU when none available (Count)
system.cpu1.statFuBusy::SimdAes                     0      0.00%     66.98% # attempts to use FU when none available (Count)
system.cpu1.statFuBusy::SimdAesMix                  0      0.00%     66.98% # attempts to use FU when none available (Count)
system.cpu1.statFuBusy::SimdSha1Hash                0      0.00%     66.98% # attempts to use FU when none available (Count)
system.cpu1.statFuBusy::SimdSha1Hash2               0      0.00%     66.98% # attempts to use FU when none available (Count)
system.cpu1.statFuBusy::SimdSha256Hash              0      0.00%     66.98% # attempts to use FU when none available (Count)
system.cpu1.statFuBusy::SimdSha256Hash2             0      0.00%     66.98% # attempts to use FU when none available (Count)
system.cpu1.statFuBusy::SimdShaSigma2               0      0.00%     66.98% # attempts to use FU when none available (Count)
system.cpu1.statFuBusy::SimdShaSigma3               0      0.00%     66.98% # attempts to use FU when none available (Count)
system.cpu1.statFuBusy::SimdPredAlu                 0      0.00%     66.98% # attempts to use FU when none available (Count)
system.cpu1.statFuBusy::MemRead                 12788     17.21%     84.19% # attempts to use FU when none available (Count)
system.cpu1.statFuBusy::MemWrite                 9935     13.37%     97.56% # attempts to use FU when none available (Count)
system.cpu1.statFuBusy::FloatMemRead             1357      1.83%     99.39% # attempts to use FU when none available (Count)
system.cpu1.statFuBusy::FloatMemWrite             456      0.61%    100.00% # attempts to use FU when none available (Count)
system.cpu1.statFuBusy::IprAccess                   0      0.00%    100.00% # attempts to use FU when none available (Count)
system.cpu1.statFuBusy::InstPrefetch                0      0.00%    100.00% # attempts to use FU when none available (Count)
system.cpu1.statIssuedInstType_0::No_OpClass        40457      0.17%      0.17% # Number of instructions issued per FU type, per thread (Count)
system.cpu1.statIssuedInstType_0::IntAlu     18405931     78.81%     78.98% # Number of instructions issued per FU type, per thread (Count)
system.cpu1.statIssuedInstType_0::IntMult           36      0.00%     78.98% # Number of instructions issued per FU type, per thread (Count)
system.cpu1.statIssuedInstType_0::IntDiv        38133      0.16%     79.14% # Number of instructions issued per FU type, per thread (Count)
system.cpu1.statIssuedInstType_0::FloatAdd         4218      0.02%     79.16% # Number of instructions issued per FU type, per thread (Count)
system.cpu1.statIssuedInstType_0::FloatCmp            0      0.00%     79.16% # Number of instructions issued per FU type, per thread (Count)
system.cpu1.statIssuedInstType_0::FloatCvt         1412      0.01%     79.17% # Number of instructions issued per FU type, per thread (Count)
system.cpu1.statIssuedInstType_0::FloatMult            0      0.00%     79.17% # Number of instructions issued per FU type, per thread (Count)
system.cpu1.statIssuedInstType_0::FloatMultAcc            0      0.00%     79.17% # Number of instructions issued per FU type, per thread (Count)
system.cpu1.statIssuedInstType_0::FloatDiv            0      0.00%     79.17% # Number of instructions issued per FU type, per thread (Count)
system.cpu1.statIssuedInstType_0::FloatMisc            0      0.00%     79.17% # Number of instructions issued per FU type, per thread (Count)
system.cpu1.statIssuedInstType_0::FloatSqrt            0      0.00%     79.17% # Number of instructions issued per FU type, per thread (Count)
system.cpu1.statIssuedInstType_0::SimdAdd         8259      0.04%     79.20% # Number of instructions issued per FU type, per thread (Count)
system.cpu1.statIssuedInstType_0::SimdAddAcc            0      0.00%     79.20% # Number of instructions issued per FU type, per thread (Count)
system.cpu1.statIssuedInstType_0::SimdAlu        16781      0.07%     79.28% # Number of instructions issued per FU type, per thread (Count)
system.cpu1.statIssuedInstType_0::SimdCmp            0      0.00%     79.28% # Number of instructions issued per FU type, per thread (Count)
system.cpu1.statIssuedInstType_0::SimdCvt        18448      0.08%     79.35% # Number of instructions issued per FU type, per thread (Count)
system.cpu1.statIssuedInstType_0::SimdMisc         8663      0.04%     79.39% # Number of instructions issued per FU type, per thread (Count)
system.cpu1.statIssuedInstType_0::SimdMult            0      0.00%     79.39% # Number of instructions issued per FU type, per thread (Count)
system.cpu1.statIssuedInstType_0::SimdMultAcc            0      0.00%     79.39% # Number of instructions issued per FU type, per thread (Count)
system.cpu1.statIssuedInstType_0::SimdShift         2471      0.01%     79.40% # Number of instructions issued per FU type, per thread (Count)
system.cpu1.statIssuedInstType_0::SimdShiftAcc            0      0.00%     79.40% # Number of instructions issued per FU type, per thread (Count)
system.cpu1.statIssuedInstType_0::SimdDiv            0      0.00%     79.40% # Number of instructions issued per FU type, per thread (Count)
system.cpu1.statIssuedInstType_0::SimdSqrt            0      0.00%     79.40% # Number of instructions issued per FU type, per thread (Count)
system.cpu1.statIssuedInstType_0::SimdFloatAdd            0      0.00%     79.40% # Number of instructions issued per FU type, per thread (Count)
system.cpu1.statIssuedInstType_0::SimdFloatAlu            0      0.00%     79.40% # Number of instructions issued per FU type, per thread (Count)
system.cpu1.statIssuedInstType_0::SimdFloatCmp            0      0.00%     79.40% # Number of instructions issued per FU type, per thread (Count)
system.cpu1.statIssuedInstType_0::SimdFloatCvt            0      0.00%     79.40% # Number of instructions issued per FU type, per thread (Count)
system.cpu1.statIssuedInstType_0::SimdFloatDiv            0      0.00%     79.40% # Number of instructions issued per FU type, per thread (Count)
system.cpu1.statIssuedInstType_0::SimdFloatMisc            0      0.00%     79.40% # Number of instructions issued per FU type, per thread (Count)
system.cpu1.statIssuedInstType_0::SimdFloatMult            0      0.00%     79.40% # Number of instructions issued per FU type, per thread (Count)
system.cpu1.statIssuedInstType_0::SimdFloatMultAcc            0      0.00%     79.40% # Number of instructions issued per FU type, per thread (Count)
system.cpu1.statIssuedInstType_0::SimdFloatSqrt            0      0.00%     79.40% # Number of instructions issued per FU type, per thread (Count)
system.cpu1.statIssuedInstType_0::SimdReduceAdd            0      0.00%     79.40% # Number of instructions issued per FU type, per thread (Count)
system.cpu1.statIssuedInstType_0::SimdReduceAlu            0      0.00%     79.40% # Number of instructions issued per FU type, per thread (Count)
system.cpu1.statIssuedInstType_0::SimdReduceCmp            0      0.00%     79.40% # Number of instructions issued per FU type, per thread (Count)
system.cpu1.statIssuedInstType_0::SimdFloatReduceAdd            0      0.00%     79.40% # Number of instructions issued per FU type, per thread (Count)
system.cpu1.statIssuedInstType_0::SimdFloatReduceCmp            0      0.00%     79.40% # Number of instructions issued per FU type, per thread (Count)
system.cpu1.statIssuedInstType_0::SimdAes            0      0.00%     79.40% # Number of instructions issued per FU type, per thread (Count)
system.cpu1.statIssuedInstType_0::SimdAesMix            0      0.00%     79.40% # Number of instructions issued per FU type, per thread (Count)
system.cpu1.statIssuedInstType_0::SimdSha1Hash            0      0.00%     79.40% # Number of instructions issued per FU type, per thread (Count)
system.cpu1.statIssuedInstType_0::SimdSha1Hash2            0      0.00%     79.40% # Number of instructions issued per FU type, per thread (Count)
system.cpu1.statIssuedInstType_0::SimdSha256Hash            0      0.00%     79.40% # Number of instructions issued per FU type, per thread (Count)
system.cpu1.statIssuedInstType_0::SimdSha256Hash2            0      0.00%     79.40% # Number of instructions issued per FU type, per thread (Count)
system.cpu1.statIssuedInstType_0::SimdShaSigma2            0      0.00%     79.40% # Number of instructions issued per FU type, per thread (Count)
system.cpu1.statIssuedInstType_0::SimdShaSigma3            0      0.00%     79.40% # Number of instructions issued per FU type, per thread (Count)
system.cpu1.statIssuedInstType_0::SimdPredAlu            0      0.00%     79.40% # Number of instructions issued per FU type, per thread (Count)
system.cpu1.statIssuedInstType_0::MemRead      2948832     12.63%     92.03% # Number of instructions issued per FU type, per thread (Count)
system.cpu1.statIssuedInstType_0::MemWrite      1811244      7.76%     99.78% # Number of instructions issued per FU type, per thread (Count)
system.cpu1.statIssuedInstType_0::FloatMemRead        32947      0.14%     99.92% # Number of instructions issued per FU type, per thread (Count)
system.cpu1.statIssuedInstType_0::FloatMemWrite        17674      0.08%    100.00% # Number of instructions issued per FU type, per thread (Count)
system.cpu1.statIssuedInstType_0::IprAccess            0      0.00%    100.00% # Number of instructions issued per FU type, per thread (Count)
system.cpu1.statIssuedInstType_0::InstPrefetch            0      0.00%    100.00% # Number of instructions issued per FU type, per thread (Count)
system.cpu1.statIssuedInstType_0::total      23355506                       # Number of instructions issued per FU type, per thread (Count)
system.cpu1.issueRate                        1.433697                       # Inst issue rate ((Count/Cycle))
system.cpu1.fuBusy                              74303                       # FU busy when requested (Count)
system.cpu1.fuBusyRate                       0.003181                       # FU busy rate (busy events/executed inst) ((Count/Count))
system.cpu1.intInstQueueReads                61780987                       # Number of integer instruction queue reads (Count)
system.cpu1.intInstQueueWrites               25086803                       # Number of integer instruction queue writes (Count)
system.cpu1.intInstQueueWakeupAccesses       23123210                       # Number of integer instruction queue wakeup accesses (Count)
system.cpu1.fpInstQueueReads                   226555                       # Number of floating instruction queue reads (Count)
system.cpu1.fpInstQueueWrites                  173081                       # Number of floating instruction queue writes (Count)
system.cpu1.fpInstQueueWakeupAccesses          108248                       # Number of floating instruction queue wakeup accesses (Count)
system.cpu1.vecInstQueueReads                       0                       # Number of vector instruction queue reads (Count)
system.cpu1.vecInstQueueWrites                      0                       # Number of vector instruction queue writes (Count)
system.cpu1.vecInstQueueWakeupAccesses              0                       # Number of vector instruction queue wakeup accesses (Count)
system.cpu1.intAluAccesses                   23275123                       # Number of integer alu accesses (Count)
system.cpu1.fpAluAccesses                      114229                       # Number of floating point alu accesses (Count)
system.cpu1.vecAluAccesses                          0                       # Number of vector alu accesses (Count)
system.cpu1.numInsts                         23272133                       # Number of executed instructions (Count)
system.cpu1.numLoadInsts                      2969602                       # Number of load instructions executed (Count)
system.cpu1.numSquashedInsts                    83371                       # Number of squashed instructions skipped in execute (Count)
system.cpu1.numSwp                                  0                       # Number of swp insts executed (Count)
system.cpu1.numNop                                  0                       # Number of nop insts executed (Count)
system.cpu1.numRefs                           4796411                       # Number of memory reference insts executed (Count)
system.cpu1.numBranches                       1908705                       # Number of branches executed (Count)
[...]
system.ruby.network.ext_out_link_utilization      4183678                       (Unspecified)
system.ruby.network.flit_network_latency |104580213500                       |207426964500                       | 28850377500                       (Unspecified)
system.ruby.network.flit_queueing_latency |  2114233000                       |  1955633000                       |   148054000                       (Unspecified)
system.ruby.network.flits_injected       |      991591     23.70%     23.70% |     2895979     69.22%     92.92% |      296108      7.08%    100.00% (Unspecified)
system.ruby.network.flits_injected::total      4183678                       (Unspecified)
system.ruby.network.flits_received       |      991591     23.70%     23.70% |     2895979     69.22%     92.92% |      296108      7.08%    100.00% (Unspecified)
system.ruby.network.flits_received::total      4183678                       (Unspecified)
system.ruby.network.int_link_utilization     12640226                       (Unspecified)
system.ruby.network.packet_network_latency | 78556816500                       | 68687006500                       | 28850377500                       (Unspecified)
system.ruby.network.packet_queueing_latency |  1736125000                       |   522983000                       |   148054000                       (Unspecified)
system.ruby.network.packets_injected     |      809559     42.27%     42.27% |      809559     42.27%     84.54% |      296108     15.46%    100.00% (Unspecified)
system.ruby.network.packets_injected::total      1915226                       (Unspecified)
system.ruby.network.packets_received     |      809559     42.27%     42.27% |      809559     42.27%     84.54% |      296108     15.46%    100.00% (Unspecified)
system.ruby.network.packets_received::total      1915226                       (Unspecified)
system.ruby.network.routers00.Var_1                 0                       (Unspecified)
system.ruby.network.routers00.Var_2                 0                       (Unspecified)
system.ruby.network.routers00.Var_3                 0                       (Unspecified)
system.ruby.network.routers00.all_counts            0                       (Unspecified)
system.ruby.network.routers00.buffer_reads       747767                       (Unspecified)
system.ruby.network.routers00.buffer_writes       747767                       (Unspecified)
system.ruby.network.routers00.crossbar_activity       747767                       (Unspecified)
system.ruby.network.routers00.detour_counts        53340                       (Unspecified)
system.ruby.network.routers00.regular_var            0                       (Unspecified)
system.ruby.network.routers00.risk_counts            0                       (Unspecified)
system.ruby.network.routers00.sw_input_arbiter_activity       753598                       (Unspecified)
system.ruby.network.routers00.sw_output_arbiter_activity       747767                       (Unspecified)
system.ruby.network.routers01.Var_1                 0                       (Unspecified)
system.ruby.network.routers01.Var_2                 0                       (Unspecified)
system.ruby.network.routers01.Var_3                 0                       (Unspecified)
system.ruby.network.routers01.all_counts            0                       (Unspecified)
system.ruby.network.routers01.buffer_reads      1070702                       (Unspecified)
system.ruby.network.routers01.buffer_writes      1070702                       (Unspecified)
system.ruby.network.routers01.crossbar_activity      1070702                       (Unspecified)
system.ruby.network.routers01.detour_counts        53483                       (Unspecified)
system.ruby.network.routers01.regular_var            0                       (Unspecified)
system.ruby.network.routers01.risk_counts            0                       (Unspecified)
system.ruby.network.routers01.sw_input_arbiter_activity      1083248                       (Unspecified)
system.ruby.network.routers01.sw_output_arbiter_activity      1070702                       (Unspecified)
system.ruby.network.routers02.Var_1                 0                       (Unspecified)
system.ruby.network.routers02.Var_2                 0                       (Unspecified)
system.ruby.network.routers02.Var_3                 0                       (Unspecified)
system.ruby.network.routers02.all_counts            0                       (Unspecified)
system.ruby.network.routers02.buffer_reads      1074855                       (Unspecified)
system.ruby.network.routers02.buffer_writes      1074855                       (Unspecified)
system.ruby.network.routers02.crossbar_activity      1074855                       (Unspecified)
system.ruby.network.routers02.detour_counts        53387                       (Unspecified)
system.ruby.network.routers02.regular_var            0                       (Unspecified)
system.ruby.network.routers02.risk_counts            0                       (Unspecified)
system.ruby.network.routers02.sw_input_arbiter_activity      1086842                       (Unspecified)
system.ruby.network.routers02.sw_output_arbiter_activity      1074855                       (Unspecified)
system.ruby.network.routers03.Var_1                 0                       (Unspecified)
system.ruby.network.routers03.Var_2                 0                       (Unspecified)
system.ruby.network.routers03.Var_3                 0                       (Unspecified)
system.ruby.network.routers03.all_counts            0                       (Unspecified)
system.ruby.network.routers03.buffer_reads       739861                       (Unspecified)
system.ruby.network.routers03.buffer_writes       739861                       (Unspecified)
system.ruby.network.routers03.crossbar_activity       739861                       (Unspecified)
system.ruby.network.routers03.detour_counts        53475                       (Unspecified)
system.ruby.network.routers03.regular_var            0                       (Unspecified)
system.ruby.network.routers03.risk_counts            0                       (Unspecified)
system.ruby.network.routers03.sw_input_arbiter_activity       745385                       (Unspecified)
system.ruby.network.routers03.sw_output_arbiter_activity       739861                       (Unspecified)
system.ruby.network.routers04.Var_1                 0                       (Unspecified)
system.ruby.network.routers04.Var_2                 0                       (Unspecified)
system.ruby.network.routers04.Var_3                 0                       (Unspecified)
system.ruby.network.routers04.all_counts            0                       (Unspecified)
system.ruby.network.routers04.buffer_reads      1044763                       (Unspecified)
system.ruby.network.routers04.buffer_writes      1044763                       (Unspecified)
system.ruby.network.routers04.crossbar_activity      1044763                       (Unspecified)
system.ruby.network.routers04.detour_counts        53442                       (Unspecified)
system.ruby.network.routers04.regular_var            0                       (Unspecified)
system.ruby.network.routers04.risk_counts            0                       (Unspecified)
system.ruby.network.routers04.sw_input_arbiter_activity      1055738                       (Unspecified)
system.ruby.network.routers04.sw_output_arbiter_activity      1044763                       (Unspecified)
system.ruby.network.routers05.Var_1                 0                       (Unspecified)
system.ruby.network.routers05.Var_2                 0                       (Unspecified)
system.ruby.network.routers05.Var_3                 0                       (Unspecified)
system.ruby.network.routers05.all_counts            0                       (Unspecified)
system.ruby.network.routers05.buffer_reads      1368124                       (Unspecified)
system.ruby.network.routers05.buffer_writes      1368124                       (Unspecified)
system.ruby.network.routers05.crossbar_activity      1368124                       (Unspecified)
system.ruby.network.routers05.detour_counts        53459                       (Unspecified)
system.ruby.network.routers05.regular_var            0                       (Unspecified)
system.ruby.network.routers05.risk_counts            0                       (Unspecified)
system.ruby.network.routers05.sw_input_arbiter_activity      1386049                       (Unspecified)
system.ruby.network.routers05.sw_output_arbiter_activity      1368124                       (Unspecified)
system.ruby.network.routers06.Var_1                 0                       (Unspecified)
system.ruby.network.routers06.Var_2                 0                       (Unspecified)
system.ruby.network.routers06.Var_3                 0                       (Unspecified)
system.ruby.network.routers06.all_counts            0                       (Unspecified)
system.ruby.network.routers06.buffer_reads      1368115                       (Unspecified)
system.ruby.network.routers06.buffer_writes      1368115                       (Unspecified)
system.ruby.network.routers06.crossbar_activity      1368115                       (Unspecified)
system.ruby.network.routers06.detour_counts        53349                       (Unspecified)
system.ruby.network.routers06.regular_var            0                       (Unspecified)
system.ruby.network.routers06.risk_counts            0                       (Unspecified)
system.ruby.network.routers06.sw_input_arbiter_activity      1386677                       (Unspecified)
system.ruby.network.routers06.sw_output_arbiter_activity      1368115                       (Unspecified)
system.ruby.network.routers07.Var_1                 0                       (Unspecified)
system.ruby.network.routers07.Var_2                 0                       (Unspecified)
system.ruby.network.routers07.Var_3                 0                       (Unspecified)
system.ruby.network.routers07.all_counts            0                       (Unspecified)
system.ruby.network.routers07.buffer_reads      1032754                       (Unspecified)
system.ruby.network.routers07.buffer_writes      1032754                       (Unspecified)
system.ruby.network.routers07.crossbar_activity      1032754                       (Unspecified)
system.ruby.network.routers07.detour_counts        53579                       (Unspecified)
system.ruby.network.routers07.regular_var            0                       (Unspecified)
system.ruby.network.routers07.risk_counts            0                       (Unspecified)
system.ruby.network.routers07.sw_input_arbiter_activity      1044335                       (Unspecified)
system.ruby.network.routers07.sw_output_arbiter_activity      1032754                       (Unspecified)
system.ruby.network.routers08.Var_1                 0                       (Unspecified)
system.ruby.network.routers08.Var_2                 0                       (Unspecified)
system.ruby.network.routers08.Var_3                 0                       (Unspecified)
system.ruby.network.routers08.all_counts            0                       (Unspecified)
system.ruby.network.routers08.buffer_reads      1040357                       (Unspecified)
system.ruby.network.routers08.buffer_writes      1040357                       (Unspecified)
system.ruby.network.routers08.crossbar_activity      1040357                       (Unspecified)
system.ruby.network.routers08.detour_counts        53457                       (Unspecified)
system.ruby.network.routers08.regular_var            0                       (Unspecified)
system.ruby.network.routers08.risk_counts            0                       (Unspecified)
system.ruby.network.routers08.sw_input_arbiter_activity      1051634                       (Unspecified)
system.ruby.network.routers08.sw_output_arbiter_activity      1040357                       (Unspecified)
system.ruby.network.routers09.Var_1                 0                       (Unspecified)
system.ruby.network.routers09.Var_2                 0                       (Unspecified)
system.ruby.network.routers09.Var_3                 0                       (Unspecified)
system.ruby.network.routers09.all_counts            0                       (Unspecified)
system.ruby.network.routers09.buffer_reads      1366261                       (Unspecified)
system.ruby.network.routers09.buffer_writes      1366261                       (Unspecified)
system.ruby.network.routers09.crossbar_activity      1366261                       (Unspecified)
system.ruby.network.routers09.detour_counts        53294                       (Unspecified)
system.ruby.network.routers09.regular_var            0                       (Unspecified)
system.ruby.network.routers09.risk_counts            0                       (Unspecified)
system.ruby.network.routers09.sw_input_arbiter_activity      1384335                       (Unspecified)
system.ruby.network.routers09.sw_output_arbiter_activity      1366261                       (Unspecified)
system.ruby.network.routers10.Var_1                 0                       (Unspecified)
system.ruby.network.routers10.Var_2                 0                       (Unspecified)
system.ruby.network.routers10.Var_3                 0                       (Unspecified)
system.ruby.network.routers10.all_counts            0                       (Unspecified)
system.ruby.network.routers10.buffer_reads      1362233                       (Unspecified)
system.ruby.network.routers10.buffer_writes      1362233                       (Unspecified)
system.ruby.network.routers10.crossbar_activity      1362233                       (Unspecified)
system.ruby.network.routers10.detour_counts        53395                       (Unspecified)
system.ruby.network.routers10.regular_var            0                       (Unspecified)
system.ruby.network.routers10.risk_counts            0                       (Unspecified)
system.ruby.network.routers10.sw_input_arbiter_activity      1379790                       (Unspecified)
system.ruby.network.routers10.sw_output_arbiter_activity      1362233                       (Unspecified)
system.ruby.network.routers11.Var_1                 0                       (Unspecified)
system.ruby.network.routers11.Var_2                 0                       (Unspecified)
system.ruby.network.routers11.Var_3                 0                       (Unspecified)
system.ruby.network.routers11.all_counts            0                       (Unspecified)
system.ruby.network.routers11.buffer_reads      1027743                       (Unspecified)
system.ruby.network.routers11.buffer_writes      1027743                       (Unspecified)
system.ruby.network.routers11.crossbar_activity      1027743                       (Unspecified)
system.ruby.network.routers11.detour_counts        53596                       (Unspecified)
system.ruby.network.routers11.regular_var            0                       (Unspecified)
system.ruby.network.routers11.risk_counts            0                       (Unspecified)
system.ruby.network.routers11.sw_input_arbiter_activity      1038859                       (Unspecified)
system.ruby.network.routers11.sw_output_arbiter_activity      1027743                       (Unspecified)
system.ruby.network.routers12.Var_1                 0                       (Unspecified)
system.ruby.network.routers12.Var_2                 0                       (Unspecified)
system.ruby.network.routers12.Var_3                 0                       (Unspecified)
system.ruby.network.routers12.all_counts            0                       (Unspecified)
system.ruby.network.routers12.buffer_reads       734637                       (Unspecified)
system.ruby.network.routers12.buffer_writes       734637                       (Unspecified)
system.ruby.network.routers12.crossbar_activity       734637                       (Unspecified)
system.ruby.network.routers12.detour_counts        53491                       (Unspecified)
system.ruby.network.routers12.regular_var            0                       (Unspecified)
system.ruby.network.routers12.risk_counts            0                       (Unspecified)
system.ruby.network.routers12.sw_input_arbiter_activity       739997                       (Unspecified)
system.ruby.network.routers12.sw_output_arbiter_activity       734637                       (Unspecified)
system.ruby.network.routers13.Var_1                 0                       (Unspecified)
system.ruby.network.routers13.Var_2                 0                       (Unspecified)
system.ruby.network.routers13.Var_3                 0                       (Unspecified)
system.ruby.network.routers13.all_counts            0                       (Unspecified)
system.ruby.network.routers13.buffer_reads      1060758                       (Unspecified)
system.ruby.network.routers13.buffer_writes      1060758                       (Unspecified)
system.ruby.network.routers13.crossbar_activity      1060758                       (Unspecified)
system.ruby.network.routers13.detour_counts        53434                       (Unspecified)
system.ruby.network.routers13.regular_var            0                       (Unspecified)
system.ruby.network.routers13.risk_counts            0                       (Unspecified)
system.ruby.network.routers13.sw_input_arbiter_activity      1072831                       (Unspecified)
system.ruby.network.routers13.sw_output_arbiter_activity      1060758                       (Unspecified)
system.ruby.network.routers14.Var_1                 0                       (Unspecified)
system.ruby.network.routers14.Var_2                 0                       (Unspecified)
system.ruby.network.routers14.Var_3                 0                       (Unspecified)
system.ruby.network.routers14.all_counts            0                       (Unspecified)
system.ruby.network.routers14.buffer_reads      1055271                       (Unspecified)
system.ruby.network.routers14.buffer_writes      1055271                       (Unspecified)
system.ruby.network.routers14.crossbar_activity      1055271                       (Unspecified)
system.ruby.network.routers14.detour_counts        53594                       (Unspecified)
system.ruby.network.routers14.regular_var            0                       (Unspecified)
system.ruby.network.routers14.risk_counts            0                       (Unspecified)
system.ruby.network.routers14.sw_input_arbiter_activity      1066915                       (Unspecified)
system.ruby.network.routers14.sw_output_arbiter_activity      1055271                       (Unspecified)
system.ruby.network.routers15.Var_1                 0                       (Unspecified)
system.ruby.network.routers15.Var_2                 0                       (Unspecified)
system.ruby.network.routers15.Var_3                 0                       (Unspecified)
system.ruby.network.routers15.all_counts            0                       (Unspecified)
system.ruby.network.routers15.buffer_reads       729703                       (Unspecified)
system.ruby.network.routers15.buffer_writes       729703                       (Unspecified)
system.ruby.network.routers15.crossbar_activity       729703                       (Unspecified)
system.ruby.network.routers15.detour_counts        53605                       (Unspecified)
system.ruby.network.routers15.regular_var            0                       (Unspecified)
system.ruby.network.routers15.risk_counts            0                       (Unspecified)
system.ruby.network.routers15.sw_input_arbiter_activity       735124                       (Unspecified)
system.ruby.network.routers15.sw_output_arbiter_activity       729703                       (Unspecified)

---------- End Simulation Statistics   ----------
