
---------- Begin Simulation Statistics ----------
simSeconds                                   0.008110                       # Number of seconds simulated (Second)
simTicks                                   8110351000                       # Number of ticks simulated (Tick)
finalTick                                  8110351000                       # Number of ticks from beginning of simulation (restored from checkpoints and never reset) (Tick)
simFreq                                  1000000000000                       # The number of ticks per simulated second ((Tick/Second))
hostSeconds                                   2303.71                       # Real time elapsed on the host (Second)
hostTickRate                                  3520554                       # The number of ticks simulated per host second (ticks/s) ((Tick/Second))
hostMemory                                   11407140                       # Number of bytes of host memory used (Byte)
simInsts                                    153391471                       # Number of instructions simulated (Count)
simOps                                      354850756                       # Number of ops (including micro ops) simulated (Count)
hostInstRate                                    66584                       # Simulator instruction rate (inst/s) ((Count/Second))
hostOpRate                                     154034                       # Simulator op (including micro ops) rate (op/s) ((Count/Second))
system.clk_domain.clock                          1000                       # Clock period in ticks (Tick)
system.cpu0.numCycles                        16220703                       # Number of cpu cycles simulated (Cycle)
system.cpu0.numWorkItemsStarted                     0                       # Number of work items this cpu started (Count)
system.cpu0.numWorkItemsCompleted                   0                       # Number of work items this cpu completed (Count)
system.cpu0.instsAdded                       22714450                       # Number of instructions added to the IQ (excludes non-spec) (Count)
system.cpu0.nonSpecInstsAdded                     868                       # Number of non-speculative instructions added to the IQ (Count)
system.cpu0.instsIssued                      22206666                       # Number of instructions issued (Count)
system.cpu0.squashedInstsIssued                  2862                       # Number of squashed instructions issued (Count)
system.cpu0.squashedInstsExamined             1351058                       # Number of squashed instructions iterated over during squash; mainly for profiling (Count)
system.cpu0.squashedOperandsExamined          3005649                       # Number of squashed operands that are examined and possibly removed from graph (Count)
system.cpu0.squashedNonSpecRemoved                135                       # Number of squashed non-spec instructions that were removed (Count)
system.cpu0.numIssuedDist::samples           15081197                       # Number of insts issued each cycle (Count)
system.cpu0.numIssuedDist::mean              1.472474                       # Number of insts issued each cycle (Count)
system.cpu0.numIssuedDist::stdev             1.988005                       # Number of insts issued each cycle (Count)
system.cpu0.numIssuedDist::underflows               0      0.00%      0.00% # Number of insts issued each cycle (Count)
system.cpu0.numIssuedDist::0                  8382938     55.59%     55.59% # Number of insts issued each cycle (Count)
system.cpu0.numIssuedDist::1                  1134069      7.52%     63.11% # Number of insts issued each cycle (Count)
system.cpu0.numIssuedDist::2                  1043052      6.92%     70.02% # Number of insts issued each cycle (Count)
system.cpu0.numIssuedDist::3                  1757458     11.65%     81.67% # Number of insts issued each cycle (Count)
system.cpu0.numIssuedDist::4                  1170196      7.76%     89.43% # Number of insts issued each cycle (Count)
system.cpu0.numIssuedDist::5                   895312      5.94%     95.37% # Number of insts issued each cycle (Count)
system.cpu0.numIssuedDist::6                   409373      2.71%     98.09% # Number of insts issued each cycle (Count)
system.cpu0.numIssuedDist::7                   209855      1.39%     99.48% # Number of insts issued each cycle (Count)
system.cpu0.numIssuedDist::8                    78944      0.52%    100.00% # Number of insts issued each cycle (Count)
system.cpu0.numIssuedDist::overflows                0      0.00%    100.00% # Number of insts issued each cycle (Count)
system.cpu0.numIssuedDist::min_value                0                       # Number of insts issued each cycle (Count)
system.cpu0.numIssuedDist::max_value                8                       # Number of insts issued each cycle (Count)
system.cpu0.numIssuedDist::total             15081197                       # Number of insts issued each cycle (Count)
system.cpu0.statFuBusy::No_OpClass                  0      0.00%      0.00% # attempts to use FU when none available (Count)
system.cpu0.statFuBusy::IntAlu                  77696     74.34%     74.34% # attempts to use FU when none available (Count)
system.cpu0.statFuBusy::IntMult                     0      0.00%     74.34% # attempts to use FU when none available (Count)
system.cpu0.statFuBusy::IntDiv                      0      0.00%     74.34% # attempts to use FU when none available (Count)
system.cpu0.statFuBusy::FloatAdd                    0      0.00%     74.34% # attempts to use FU when none available (Count)
system.cpu0.statFuBusy::FloatCmp                    0      0.00%     74.34% # attempts to use FU when none available (Count)
system.cpu0.statFuBusy::FloatCvt                    0      0.00%     74.34% # attempts to use FU when none available (Count)
system.cpu0.statFuBusy::FloatMult                   0      0.00%     74.34% # attempts to use FU when none available (Count)
system.cpu0.statFuBusy::FloatMultAcc                0      0.00%     74.34% # attempts to use FU when none available (Count)
system.cpu0.statFuBusy::FloatDiv                    0      0.00%     74.34% # attempts to use FU when none available (Count)
system.cpu0.statFuBusy::FloatMisc                   0      0.00%     74.34% # attempts to use FU when none available (Count)
system.cpu0.statFuBusy::FloatSqrt                   0      0.00%     74.34% # attempts to use FU when none available (Count)
system.cpu0.statFuBusy::SimdAdd                     0      0.00%     74.34% # attempts to use FU when none available (Count)
system.cpu0.statFuBusy::SimdAddAcc                  0      0.00%     74.34% # attempts to use FU when none available (Count)
system.cpu0.statFuBusy::SimdAlu                   121      0.12%     74.46% # attempts to use FU when none available (Count)
system.cpu0.statFuBusy::SimdCmp                     0      0.00%     74.46% # attempts to use FU when none available (Count)
system.cpu0.statFuBusy::SimdCvt                   122      0.12%     74.58% # attempts to use FU when none available (Count)
system.cpu0.statFuBusy::SimdMisc                    0      0.00%     74.58% # attempts to use FU when none available (Count)
system.cpu0.statFuBusy::SimdMult                    0      0.00%     74.58% # attempts to use FU when none available (Count)
system.cpu0.statFuBusy::SimdMultAcc                 0      0.00%     74.58% # attempts to use FU when none available (Count)
system.cpu0.statFuBusy::SimdShift                 134      0.13%     74.70% # attempts to use FU when none available (Count)
system.cpu0.statFuBusy::SimdShiftAcc                0      0.00%     74.70% # attempts to use FU when none available (Count)
system.cpu0.statFuBusy::SimdDiv                     0      0.00%     74.70% # attempts to use FU when none available (Count)
system.cpu0.statFuBusy::SimdSqrt                    0      0.00%     74.70% # attempts to use FU when none available (Count)
system.cpu0.statFuBusy::SimdFloatAdd                0      0.00%     74.70% # attempts to use FU when none available (Count)
system.cpu0.statFuBusy::SimdFloatAlu                0      0.00%     74.70% # attempts to use FU when none available (Count)
system.cpu0.statFuBusy::SimdFloatCmp                0      0.00%     74.70% # attempts to use FU when none available (Count)
system.cpu0.statFuBusy::SimdFloatCvt                0      0.00%     74.70% # attempts to use FU when none available (Count)
system.cpu0.statFuBusy::SimdFloatDiv                0      0.00%     74.70% # attempts to use FU when none available (Count)
system.cpu0.statFuBusy::SimdFloatMisc               0      0.00%     74.70% # attempts to use FU when none available (Count)
system.cpu0.statFuBusy::SimdFloatMult               0      0.00%     74.70% # attempts to use FU when none available (Count)
system.cpu0.statFuBusy::SimdFloatMultAcc            0      0.00%     74.70% # attempts to use FU when none available (Count)
system.cpu0.statFuBusy::SimdFloatSqrt               0      0.00%     74.70% # attempts to use FU when none available (Count)
system.cpu0.statFuBusy::SimdReduceAdd               0      0.00%     74.70% # attempts to use FU when none available (Count)
system.cpu0.statFuBusy::SimdReduceAlu               0      0.00%     74.70% # attempts to use FU when none available (Count)
system.cpu0.statFuBusy::SimdReduceCmp               0      0.00%     74.70% # attempts to use FU when none available (Count)
system.cpu0.statFuBusy::SimdFloatReduceAdd            0      0.00%     74.70% # attempts to use FU when none available (Count)
system.cpu0.statFuBusy::SimdFloatReduceCmp            0      0.00%     74.70% # attempts to use FU when none available (Count)
system.cpu0.statFuBusy::SimdAes                     0      0.00%     74.70% # attempts to use FU when none available (Count)
system.cpu0.statFuBusy::SimdAesMix                  0      0.00%     74.70% # attempts to use FU when none available (Count)
system.cpu0.statFuBusy::SimdSha1Hash                0      0.00%     74.70% # attempts to use FU when none available (Count)
system.cpu0.statFuBusy::SimdSha1Hash2               0      0.00%     74.70% # attempts to use FU when none available (Count)
system.cpu0.statFuBusy::SimdSha256Hash              0      0.00%     74.70% # attempts to use FU when none available (Count)
system.cpu0.statFuBusy::SimdSha256Hash2             0      0.00%     74.70% # attempts to use FU when none available (Count)
system.cpu0.statFuBusy::SimdShaSigma2               0      0.00%     74.70% # attempts to use FU when none available (Count)
system.cpu0.statFuBusy::SimdShaSigma3               0      0.00%     74.70% # attempts to use FU when none available (Count)
system.cpu0.statFuBusy::SimdPredAlu                 0      0.00%     74.70% # attempts to use FU when none available (Count)
system.cpu0.statFuBusy::MemRead                 12761     12.21%     86.91% # attempts to use FU when none available (Count)
system.cpu0.statFuBusy::MemWrite                11853     11.34%     98.26% # attempts to use FU when none available (Count)
system.cpu0.statFuBusy::FloatMemRead             1367      1.31%     99.56% # attempts to use FU when none available (Count)
system.cpu0.statFuBusy::FloatMemWrite             456      0.44%    100.00% # attempts to use FU when none available (Count)
system.cpu0.statFuBusy::IprAccess                   0      0.00%    100.00% # attempts to use FU when none available (Count)
system.cpu0.statFuBusy::InstPrefetch                0      0.00%    100.00% # attempts to use FU when none available (Count)
system.cpu0.statIssuedInstType_0::No_OpClass        35280      0.16%      0.16% # Number of instructions issued per FU type, per thread (Count)
system.cpu0.statIssuedInstType_0::IntAlu     17501126     78.81%     78.97% # Number of instructions issued per FU type, per thread (Count)
system.cpu0.statIssuedInstType_0::IntMult           38      0.00%     78.97% # Number of instructions issued per FU type, per thread (Count)
system.cpu0.statIssuedInstType_0::IntDiv        38131      0.17%     79.14% # Number of instructions issued per FU type, per thread (Count)
system.cpu0.statIssuedInstType_0::FloatAdd         4205      0.02%     79.16% # Number of instructions issued per FU type, per thread (Count)
system.cpu0.statIssuedInstType_0::FloatCmp            0      0.00%     79.16% # Number of instructions issued per FU type, per thread (Count)
system.cpu0.statIssuedInstType_0::FloatCvt         1438      0.01%     79.17% # Number of instructions issued per FU type, per thread (Count)
system.cpu0.statIssuedInstType_0::FloatMult            0      0.00%     79.17% # Number of instructions issued per FU type, per thread (Count)
system.cpu0.statIssuedInstType_0::FloatMultAcc            0      0.00%     79.17% # Number of instructions issued per FU type, per thread (Count)
system.cpu0.statIssuedInstType_0::FloatDiv            0      0.00%     79.17% # Number of instructions issued per FU type, per thread (Count)
system.cpu0.statIssuedInstType_0::FloatMisc            0      0.00%     79.17% # Number of instructions issued per FU type, per thread (Count)
system.cpu0.statIssuedInstType_0::FloatSqrt            0      0.00%     79.17% # Number of instructions issued per FU type, per thread (Count)
system.cpu0.statIssuedInstType_0::SimdAdd         8228      0.04%     79.20% # Number of instructions issued per FU type, per thread (Count)
system.cpu0.statIssuedInstType_0::SimdAddAcc            0      0.00%     79.20% # Number of instructions issued per FU type, per thread (Count)
system.cpu0.statIssuedInstType_0::SimdAlu        16762      0.08%     79.28% # Number of instructions issued per FU type, per thread (Count)
system.cpu0.statIssuedInstType_0::SimdCmp            0      0.00%     79.28% # Number of instructions issued per FU type, per thread (Count)
system.cpu0.statIssuedInstType_0::SimdCvt        18382      0.08%     79.36% # Number of instructions issued per FU type, per thread (Count)
system.cpu0.statIssuedInstType_0::SimdMisc         8618      0.04%     79.40% # Number of instructions issued per FU type, per thread (Count)
system.cpu0.statIssuedInstType_0::SimdMult            0      0.00%     79.40% # Number of instructions issued per FU type, per thread (Count)
system.cpu0.statIssuedInstType_0::SimdMultAcc            0      0.00%     79.40% # Number of instructions issued per FU type, per thread (Count)
system.cpu0.statIssuedInstType_0::SimdShift         2447      0.01%     79.41% # Number of instructions issued per FU type, per thread (Count)
system.cpu0.statIssuedInstType_0::SimdShiftAcc            0      0.00%     79.41% # Number of instructions issued per FU type, per thread (Count)
system.cpu0.statIssuedInstType_0::SimdDiv            0      0.00%     79.41% # Number of instructions issued per FU type, per thread (Count)
system.cpu0.statIssuedInstType_0::SimdSqrt            0      0.00%     79.41% # Number of instructions issued per FU type, per thread (Count)
system.cpu0.statIssuedInstType_0::SimdFloatAdd            0      0.00%     79.41% # Number of instructions issued per FU type, per thread (Count)
system.cpu0.statIssuedInstType_0::SimdFloatAlu            0      0.00%     79.41% # Number of instructions issued per FU type, per thread (Count)
system.cpu0.statIssuedInstType_0::SimdFloatCmp            0      0.00%     79.41% # Number of instructions issued per FU type, per thread (Count)
system.cpu0.statIssuedInstType_0::SimdFloatCvt            0      0.00%     79.41% # Number of instructions issued per FU type, per thread (Count)
system.cpu0.statIssuedInstType_0::SimdFloatDiv            0      0.00%     79.41% # Number of instructions issued per FU type, per thread (Count)
system.cpu0.statIssuedInstType_0::SimdFloatMisc            0      0.00%     79.41% # Number of instructions issued per FU type, per thread (Count)
system.cpu0.statIssuedInstType_0::SimdFloatMult            0      0.00%     79.41% # Number of instructions issued per FU type, per thread (Count)
system.cpu0.statIssuedInstType_0::SimdFloatMultAcc            0      0.00%     79.41% # Number of instructions issued per FU type, per thread (Count)
system.cpu0.statIssuedInstType_0::SimdFloatSqrt            0      0.00%     79.41% # Number of instructions issued per FU type, per thread (Count)
system.cpu0.statIssuedInstType_0::SimdReduceAdd            0      0.00%     79.41% # Number of instructions issued per FU type, per thread (Count)
system.cpu0.statIssuedInstType_0::SimdReduceAlu            0      0.00%     79.41% # Number of instructions issued per FU type, per thread (Count)
system.cpu0.statIssuedInstType_0::SimdReduceCmp            0      0.00%     79.41% # Number of instructions issued per FU type, per thread (Count)
system.cpu0.statIssuedInstType_0::SimdFloatReduceAdd            0      0.00%     79.41% # Number of instructions issued per FU type, per thread (Count)
system.cpu0.statIssuedInstType_0::SimdFloatReduceCmp            0      0.00%     79.41% # Number of instructions issued per FU type, per thread (Count)
system.cpu0.statIssuedInstType_0::SimdAes            0      0.00%     79.41% # Number of instructions issued per FU type, per thread (Count)
system.cpu0.statIssuedInstType_0::SimdAesMix            0      0.00%     79.41% # Number of instructions issued per FU type, per thread (Count)
system.cpu0.statIssuedInstType_0::SimdSha1Hash            0      0.00%     79.41% # Number of instructions issued per FU type, per thread (Count)
system.cpu0.statIssuedInstType_0::SimdSha1Hash2            0      0.00%     79.41% # Number of instructions issued per FU type, per thread (Count)
system.cpu0.statIssuedInstType_0::SimdSha256Hash            0      0.00%     79.41% # Number of instructions issued per FU type, per thread (Count)
system.cpu0.statIssuedInstType_0::SimdSha256Hash2            0      0.00%     79.41% # Number of instructions issued per FU type, per thread (Count)
system.cpu0.statIssuedInstType_0::SimdShaSigma2            0      0.00%     79.41% # Number of instructions issued per FU type, per thread (Count)
system.cpu0.statIssuedInstType_0::SimdShaSigma3            0      0.00%     79.41% # Number of instructions issued per FU type, per thread (Count)
system.cpu0.statIssuedInstType_0::SimdPredAlu            0      0.00%     79.41% # Number of instructions issued per FU type, per thread (Count)
system.cpu0.statIssuedInstType_0::MemRead      2807352     12.64%     92.05% # Number of instructions issued per FU type, per thread (Count)
system.cpu0.statIssuedInstType_0::MemWrite      1714012      7.72%     99.77% # Number of instructions issued per FU type, per thread (Count)
system.cpu0.statIssuedInstType_0::FloatMemRead        32942      0.15%     99.92% # Number of instructions issued per FU type, per thread (Count)
system.cpu0.statIssuedInstType_0::FloatMemWrite        17705      0.08%    100.00% # Number of instructions issued per FU type, per thread (Count)
system.cpu0.statIssuedInstType_0::IprAccess            0      0.00%    100.00% # Number of instructions issued per FU type, per thread (Count)
system.cpu0.statIssuedInstType_0::InstPrefetch            0      0.00%    100.00% # Number of instructions issued per FU type, per thread (Count)
system.cpu0.statIssuedInstType_0::total      22206666                       # Number of instructions issued per FU type, per thread (Count)
system.cpu0.issueRate                        1.369032                       # Inst issue rate ((Count/Cycle))
system.cpu0.fuBusy                             104510                       # FU busy when requested (Count)
system.cpu0.fuBusyRate                       0.004706                       # FU busy rate (busy events/executed inst) ((Count/Count))
system.cpu0.intInstQueueReads                59375674                       # Number of integer instruction queue reads (Count)
system.cpu0.intInstQueueWrites               23893804                       # Number of integer instruction queue writes (Count)
system.cpu0.intInstQueueWakeupAccesses       21998153                       # Number of integer instruction queue wakeup accesses (Count)
system.cpu0.fpInstQueueReads                   226225                       # Number of floating instruction queue reads (Count)
system.cpu0.fpInstQueueWrites                  172833                       # Number of floating instruction queue writes (Count)
system.cpu0.fpInstQueueWakeupAccesses          108059                       # Number of floating instruction queue wakeup accesses (Count)
system.cpu0.vecInstQueueReads                       0                       # Number of vector instruction queue reads (Count)
system.cpu0.vecInstQueueWrites                      0                       # Number of vector instruction queue writes (Count)
system.cpu0.vecInstQueueWakeupAccesses              0                       # Number of vector instruction queue wakeup accesses (Count)
system.cpu0.intAluAccesses                   22161836                       # Number of integer alu accesses (Count)
system.cpu0.fpAluAccesses                      114060                       # Number of floating point alu accesses (Count)
system.cpu0.vecAluAccesses                          0                       # Number of vector alu accesses (Count)
system.cpu0.numInsts                         22146078                       # Number of executed instructions (Count)
system.cpu0.numLoadInsts                      2828185                       # Number of load instructions executed (Count)
system.cpu0.numSquashedInsts                    60586                       # Number of squashed instructions skipped in execute (Count)
system.cpu0.numSwp                                  0                       # Number of swp insts executed (Count)
system.cpu0.numNop                                  0                       # Number of nop insts executed (Count)
system.cpu0.numRefs                           4557792                       # Number of memory reference insts executed (Count)
system.cpu0.numBranches                       1816170                       # Number of branches executed (Count)
system.cpu0.numStoreInsts                     1729607                       # Number of stores executed (Count)
system.cpu0.numRate                          1.365297                       # Inst execution rate ((Count/Cycle))
system.cpu0.timesIdled                           2192                       # Number of times that the entire CPU went into an idle state and unscheduled itself (Count)
system.cpu0.idleCycles                        1139506                       # Total number of cycles that the CPU has spent unscheduled due to idling (Cycle)
system.cpu0.committedInsts                    9260063                       # Number of Instructions Simulated (Count)
system.cpu0.committedOps                     21364182                       # Number of Ops (including micro ops) Simulated (Count)
system.cpu0.cpi                              1.751684                       # CPI: Cycles Per Instruction ((Cycle/Count))
system.cpu0.totalCpi                         1.751684                       # CPI: Total CPI of All Threads ((Cycle/Count))
system.cpu0.ipc                              0.570879                       # IPC: Instructions Per Cycle ((Count/Cycle))
system.cpu0.totalIpc                         0.570879                       # IPC: Total IPC of All Threads ((Count/Cycle))
system.cpu0.intRegfileReads                  34944457                       # Number of integer regfile reads (Count)
system.cpu0.intRegfileWrites                 17917165                       # Number of integer regfile writes (Count)
system.cpu0.fpRegfileReads                     147240                       # Number of floating regfile reads (Count)
system.cpu0.fpRegfileWrites                     81624                       # Number of floating regfile writes (Count)
system.cpu0.ccRegfileReads                   14837686                       # number of cc regfile reads (Count)
system.cpu0.ccRegfileWrites                  10491415                       # number of cc regfile writes (Count)
system.cpu0.miscRegfileReads                  5858696                       # number of misc regfile reads (Count)
system.cpu0.miscRegfileWrites                     729                       # number of misc regfile writes (Count)
system.cpu0.MemDepUnit__0.insertedLoads       2889749                       # Number of loads inserted to the mem dependence unit. (Count)
system.cpu0.MemDepUnit__0.insertedStores      1761411                       # Number of stores inserted to the mem dependence unit. (Count)
system.cpu0.MemDepUnit__0.conflictingLoads       393596                       # Number of conflicting loads. (Count)
system.cpu0.MemDepUnit__0.conflictingStores       205096                       # Number of conflicting stores. (Count)
system.cpu0.MemDepUnit__1.insertedLoads             0                       # Number of loads inserted to the mem dependence unit. (Count)
system.cpu0.MemDepUnit__1.insertedStores            0                       # Number of stores inserted to the mem dependence unit. (Count)
system.cpu0.MemDepUnit__1.conflictingLoads            0                       # Number of conflicting loads. (Count)
system.cpu0.MemDepUnit__1.conflictingStores            0                       # Number of conflicting stores. (Count)
system.cpu0.MemDepUnit__2.insertedLoads             0                       # Number of loads inserted to the mem dependence unit. (Count)
system.cpu0.MemDepUnit__2.insertedStores            0                       # Number of stores inserted to the mem dependence unit. (Count)
system.cpu0.MemDepUnit__2.conflictingLoads            0                       # Number of conflicting loads. (Count)
system.cpu0.MemDepUnit__2.conflictingStores            0                       # Number of conflicting stores. (Count)
system.cpu0.MemDepUnit__3.insertedLoads             0                       # Number of loads inserted to the mem dependence unit. (Count)
system.cpu0.MemDepUnit__3.insertedStores            0                       # Number of stores inserted to the mem dependence unit. (Count)
system.cpu0.MemDepUnit__3.conflictingLoads            0                       # Number of conflicting loads. (Count)
system.cpu0.MemDepUnit__3.conflictingStores            0                       # Number of conflicting stores. (Count)
system.cpu0.branchPred.lookups                1997049                       # Number of BP lookups (Count)
system.cpu0.branchPred.condPredicted          1931015                       # Number of conditional branches predicted (Count)
system.cpu0.branchPred.condIncorrect            44541                       # Number of conditional branches incorrect (Count)
system.cpu0.branchPred.BTBLookups             1750318                       # Number of BTB lookups (Count)
system.cpu0.branchPred.BTBUpdates               18802                       # Number of BTB updates (Count)
system.cpu0.branchPred.BTBHits                1746519                       # Number of BTB hits (Count)
system.cpu0.branchPred.BTBHitRatio           0.997830                       # BTB Hit Ratio (Ratio)
system.cpu0.branchPred.RASUsed                  15384                       # Number of times the RAS was used to get a target. (Count)
system.cpu0.branchPred.RASIncorrect                 8                       # Number of incorrect RAS predictions. (Count)
system.cpu0.branchPred.indirectLookups           9472                       # Number of indirect predictor lookups. (Count)
system.cpu0.branchPred.indirectHits              5080                       # Number of indirect target hits. (Count)
system.cpu0.branchPred.indirectMisses            4392                       # Number of indirect misses. (Count)
system.cpu0.branchPred.indirectMispredicted         1098                       # Number of mispredicted indirect branches. (Count)
system.cpu0.commit.commitSquashedInsts        1342074                       # The number of squashed insts skipped by commit (Count)
system.cpu0.commit.commitNonSpecStalls            733                       # The number of times commit has been forced to stall to communicate backwards (Count)
system.cpu0.commit.branchMispredicts            37435                       # The number of times a branch was mispredicted (Count)
system.cpu0.commit.numCommittedDist::samples     14884231                       # Number of insts commited each cycle (Count)
system.cpu0.commit.numCommittedDist::mean     1.435357                       # Number of insts commited each cycle (Count)
system.cpu0.commit.numCommittedDist::stdev     2.345621                       # Number of insts commited each cycle (Count)
system.cpu0.commit.numCommittedDist::underflows            0      0.00%      0.00% # Number of insts commited each cycle (Count)
system.cpu0.commit.numCommittedDist::0        8878236     59.65%     59.65% # Number of insts commited each cycle (Count)
system.cpu0.commit.numCommittedDist::1        2030180     13.64%     73.29% # Number of insts commited each cycle (Count)
system.cpu0.commit.numCommittedDist::2         671960      4.51%     77.80% # Number of insts commited each cycle (Count)
system.cpu0.commit.numCommittedDist::3         482155      3.24%     81.04% # Number of insts commited each cycle (Count)
system.cpu0.commit.numCommittedDist::4         716135      4.81%     85.85% # Number of insts commited each cycle (Count)
system.cpu0.commit.numCommittedDist::5         562797      3.78%     89.63% # Number of insts commited each cycle (Count)
system.cpu0.commit.numCommittedDist::6         695228      4.67%     94.31% # Number of insts commited each cycle (Count)
system.cpu0.commit.numCommittedDist::7          86596      0.58%     94.89% # Number of insts commited each cycle (Count)
system.cpu0.commit.numCommittedDist::8         760944      5.11%    100.00% # Number of insts commited each cycle (Count)
system.cpu0.commit.numCommittedDist::overflows            0      0.00%    100.00% # Number of insts commited each cycle (Count)
system.cpu0.commit.numCommittedDist::min_value            0                       # Number of insts commited each cycle (Count)
system.cpu0.commit.numCommittedDist::max_value            8                       # Number of insts commited each cycle (Count)
system.cpu0.commit.numCommittedDist::total     14884231                       # Number of insts commited each cycle (Count)
system.cpu0.commit.instsCommitted             9260063                       # Number of instructions committed (Count)
system.cpu0.commit.opsCommitted              21364182                       # Number of ops (including micro ops) committed (Count)
system.cpu0.commit.memRefs                    4409910                       # Number of memory references committed (Count)
system.cpu0.commit.loads                      2705628                       # Number of loads committed (Count)
system.cpu0.commit.amos                             0                       # Number of atomic instructions committed (Count)
system.cpu0.commit.membars                          0                       # Number of memory barriers committed (Count)
system.cpu0.commit.branches                   1771952                       # Number of branches committed (Count)
system.cpu0.commit.vectorInstructions               0                       # Number of committed Vector instructions. (Count)
system.cpu0.commit.floating                     79719                       # Number of committed floating point instructions. (Count)
system.cpu0.commit.integer                   20109539                       # Number of committed integer instructions. (Count)
system.cpu0.commit.functionCalls                11700                       # Number of function calls committed. (Count)
system.cpu0.commit.committedInstType_0::No_OpClass        19729      0.09%      0.09% # Class of committed instruction (Count)
system.cpu0.commit.committedInstType_0::IntAlu     16854267     78.89%     78.98% # Class of committed instruction (Count)
system.cpu0.commit.committedInstType_0::IntMult           29      0.00%     78.98% # Class of committed instruction (Count)
system.cpu0.commit.committedInstType_0::IntDiv        35785      0.17%     79.15% # Class of committed instruction (Count)
system.cpu0.commit.committedInstType_0::FloatAdd         3076      0.01%     79.16% # Class of committed instruction (Count)
system.cpu0.commit.committedInstType_0::FloatCmp            0      0.00%     79.16% # Class of committed instruction (Count)
system.cpu0.commit.committedInstType_0::FloatCvt         1296      0.01%     79.17% # Class of committed instruction (Count)
system.cpu0.commit.committedInstType_0::FloatMult            0      0.00%     79.17% # Class of committed instruction (Count)
system.cpu0.commit.committedInstType_0::FloatMultAcc            0      0.00%     79.17% # Class of committed instruction (Count)
system.cpu0.commit.committedInstType_0::FloatDiv            0      0.00%     79.17% # Class of committed instruction (Count)
system.cpu0.commit.committedInstType_0::FloatMisc            0      0.00%     79.17% # Class of committed instruction (Count)
system.cpu0.commit.committedInstType_0::FloatSqrt            0      0.00%     79.17% # Class of committed instruction (Count)
system.cpu0.commit.committedInstType_0::SimdAdd         6674      0.03%     79.20% # Class of committed instruction (Count)
system.cpu0.commit.committedInstType_0::SimdAddAcc            0      0.00%     79.20% # Class of committed instruction (Count)
system.cpu0.commit.committedInstType_0::SimdAlu        11967      0.06%     79.26% # Class of committed instruction (Count)
system.cpu0.commit.committedInstType_0::SimdCmp            0      0.00%     79.26% # Class of committed instruction (Count)
system.cpu0.commit.committedInstType_0::SimdCvt        13044      0.06%     79.32% # Class of committed instruction (Count)
system.cpu0.commit.committedInstType_0::SimdMisc         7084      0.03%     79.35% # Class of committed instruction (Count)
system.cpu0.commit.committedInstType_0::SimdMult            0      0.00%     79.35% # Class of committed instruction (Count)
system.cpu0.commit.committedInstType_0::SimdMultAcc            0      0.00%     79.35% # Class of committed instruction (Count)
system.cpu0.commit.committedInstType_0::SimdShift         1321      0.01%     79.36% # Class of committed instruction (Count)
system.cpu0.commit.committedInstType_0::SimdShiftAcc            0      0.00%     79.36% # Class of committed instruction (Count)
system.cpu0.commit.committedInstType_0::SimdDiv            0      0.00%     79.36% # Class of committed instruction (Count)
system.cpu0.commit.committedInstType_0::SimdSqrt            0      0.00%     79.36% # Class of committed instruction (Count)
system.cpu0.commit.committedInstType_0::SimdFloatAdd            0      0.00%     79.36% # Class of committed instruction (Count)
system.cpu0.commit.committedInstType_0::SimdFloatAlu            0      0.00%     79.36% # Class of committed instruction (Count)
system.cpu0.commit.committedInstType_0::SimdFloatCmp            0      0.00%     79.36% # Class of committed instruction (Count)
system.cpu0.commit.committedInstType_0::SimdFloatCvt            0      0.00%     79.36% # Class of committed instruction (Count)
system.cpu0.commit.committedInstType_0::SimdFloatDiv            0      0.00%     79.36% # Class of committed instruction (Count)
system.cpu0.commit.committedInstType_0::SimdFloatMisc            0      0.00%     79.36% # Class of committed instruction (Count)
system.cpu0.commit.committedInstType_0::SimdFloatMult            0      0.00%     79.36% # Class of committed instruction (Count)
system.cpu0.commit.committedInstType_0::SimdFloatMultAcc            0      0.00%     79.36% # Class of committed instruction (Count)
system.cpu0.commit.committedInstType_0::SimdFloatSqrt            0      0.00%     79.36% # Class of committed instruction (Count)
system.cpu0.commit.committedInstType_0::SimdReduceAdd            0      0.00%     79.36% # Class of committed instruction (Count)
system.cpu0.commit.committedInstType_0::SimdReduceAlu            0      0.00%     79.36% # Class of committed instruction (Count)
system.cpu0.commit.committedInstType_0::SimdReduceCmp            0      0.00%     79.36% # Class of committed instruction (Count)
system.cpu0.commit.committedInstType_0::SimdFloatReduceAdd            0      0.00%     79.36% # Class of committed instruction (Count)
system.cpu0.commit.committedInstType_0::SimdFloatReduceCmp            0      0.00%     79.36% # Class of committed instruction (Count)
system.cpu0.commit.committedInstType_0::SimdAes            0      0.00%     79.36% # Class of committed instruction (Count)
system.cpu0.commit.committedInstType_0::SimdAesMix            0      0.00%     79.36% # Class of committed instruction (Count)
system.cpu0.commit.committedInstType_0::SimdSha1Hash            0      0.00%     79.36% # Class of committed instruction (Count)
system.cpu0.commit.committedInstType_0::SimdSha1Hash2            0      0.00%     79.36% # Class of committed instruction (Count)
system.cpu0.commit.committedInstType_0::SimdSha256Hash            0      0.00%     79.36% # Class of committed instruction (Count)
system.cpu0.commit.committedInstType_0::SimdSha256Hash2            0      0.00%     79.36% # Class of committed instruction (Count)
system.cpu0.commit.committedInstType_0::SimdShaSigma2            0      0.00%     79.36% # Class of committed instruction (Count)
system.cpu0.commit.committedInstType_0::SimdShaSigma3            0      0.00%     79.36% # Class of committed instruction (Count)
system.cpu0.commit.committedInstType_0::SimdPredAlu            0      0.00%     79.36% # Class of committed instruction (Count)
system.cpu0.commit.committedInstType_0::MemRead      2684893     12.57%     91.93% # Class of committed instruction (Count)
system.cpu0.commit.committedInstType_0::MemWrite      1690660      7.91%     99.84% # Class of committed instruction (Count)
system.cpu0.commit.committedInstType_0::FloatMemRead        20735      0.10%     99.94% # Class of committed instruction (Count)
system.cpu0.commit.committedInstType_0::FloatMemWrite        13622      0.06%    100.00% # Class of committed instruction (Count)
system.cpu0.commit.committedInstType_0::IprAccess            0      0.00%    100.00% # Class of committed instruction (Count)
system.cpu0.commit.committedInstType_0::InstPrefetch            0      0.00%    100.00% # Class of committed instruction (Count)
system.cpu0.commit.committedInstType_0::total     21364182                       # Class of committed instruction (Count)
system.cpu0.commit.commitEligibleSamples       760944                       # number cycles where commit BW limit reached (Cycle)
system.cpu0.decode.idleCycles                 1248001                       # Number of cycles decode is idle (Cycle)
system.cpu0.decode.blockedCycles             10698787                       # Number of cycles decode is blocked (Cycle)
system.cpu0.decode.runCycles                  1615847                       # Number of cycles decode is running (Cycle)
system.cpu0.decode.unblockCycles              1480308                       # Number of cycles decode is unblocking (Cycle)
system.cpu0.decode.squashCycles                 38254                       # Number of cycles decode is squashing (Cycle)
system.cpu0.decode.branchResolved             1686695                       # Number of times decode resolved a branch (Count)
system.cpu0.decode.branchMispred                 9452                       # Number of times decode detected a branch misprediction (Count)
system.cpu0.decode.decodedInsts              23139778                       # Number of instructions handled by decode (Count)
system.cpu0.decode.squashedInsts                38661                       # Number of squashed instructions handled by decode (Count)
system.cpu0.fetch.icacheStallCycles           1087292                       # Number of cycles fetch is stalled on an Icache miss (Cycle)
system.cpu0.fetch.insts                      10587705                       # Number of instructions fetch has processed (Count)
system.cpu0.fetch.branches                    1997049                       # Number of branches that fetch encountered (Count)
system.cpu0.fetch.predictedBranches           1766983                       # Number of branches that fetch has predicted taken (Count)
system.cpu0.fetch.cycles                     13714918                       # Number of cycles fetch has run and was not squashing or blocked (Cycle)
system.cpu0.fetch.squashCycles                  95362                       # Number of cycles fetch has spent squashing (Cycle)
system.cpu0.fetch.miscStallCycles                8667                       # Number of cycles fetch has spent waiting on interrupts, or bad addresses, or out of MSHRs (Cycle)
system.cpu0.fetch.pendingTrapStallCycles        15015                       # Number of stall cycles due to pending traps (Cycle)
system.cpu0.fetch.icacheWaitRetryStallCycles       207624                       # Number of stall cycles due to full MSHR (Cycle)
system.cpu0.fetch.cacheLines                   877877                       # Number of cache lines fetched (Count)
system.cpu0.fetch.icacheSquashes                 8750                       # Number of outstanding Icache misses that were squashed (Count)
system.cpu0.fetch.nisnDist::samples          15081197                       # Number of instructions fetched each cycle (Total) (Count)
system.cpu0.fetch.nisnDist::mean             1.589019                       # Number of instructions fetched each cycle (Total) (Count)
system.cpu0.fetch.nisnDist::stdev            3.033953                       # Number of instructions fetched each cycle (Total) (Count)
system.cpu0.fetch.nisnDist::underflows              0      0.00%      0.00% # Number of instructions fetched each cycle (Total) (Count)
system.cpu0.fetch.nisnDist::0                11484745     76.15%     76.15% # Number of instructions fetched each cycle (Total) (Count)
system.cpu0.fetch.nisnDist::1                  197507      1.31%     77.46% # Number of instructions fetched each cycle (Total) (Count)
system.cpu0.fetch.nisnDist::2                  116524      0.77%     78.24% # Number of instructions fetched each cycle (Total) (Count)
system.cpu0.fetch.nisnDist::3                  142272      0.94%     79.18% # Number of instructions fetched each cycle (Total) (Count)
system.cpu0.fetch.nisnDist::4                  227890      1.51%     80.69% # Number of instructions fetched each cycle (Total) (Count)
system.cpu0.fetch.nisnDist::5                  166546      1.10%     81.79% # Number of instructions fetched each cycle (Total) (Count)
system.cpu0.fetch.nisnDist::6                  233222      1.55%     83.34% # Number of instructions fetched each cycle (Total) (Count)
system.cpu0.fetch.nisnDist::7                  136606      0.91%     84.25% # Number of instructions fetched each cycle (Total) (Count)
system.cpu0.fetch.nisnDist::8                 2375885     15.75%    100.00% # Number of instructions fetched each cycle (Total) (Count)
system.cpu0.fetch.nisnDist::overflows               0      0.00%    100.00% # Number of instructions fetched each cycle (Total) (Count)
system.cpu0.fetch.nisnDist::min_value               0                       # Number of instructions fetched each cycle (Total) (Count)
system.cpu0.fetch.nisnDist::max_value               8                       # Number of instructions fetched each cycle (Total) (Count)
system.cpu0.fetch.nisnDist::total            15081197                       # Number of instructions fetched each cycle (Total) (Count)
system.cpu0.fetch.branchRate                 0.123117                       # Number of branch fetches per cycle (Ratio)
system.cpu0.fetch.rate                       0.652728                       # Number of inst fetches per cycle ((Count/Cycle))
system.cpu0.iew.idleCycles                          0                       # Number of cycles IEW is idle (Cycle)
system.cpu0.iew.squashCycles                    38254                       # Number of cycles IEW is squashing (Cycle)
system.cpu0.iew.blockCycles                   5351639                       # Number of cycles IEW is blocking (Cycle)
system.cpu0.iew.unblockCycles                  167759                       # Number of cycles IEW is unblocking (Cycle)
system.cpu0.iew.dispatchedInsts              22715318                       # Number of instructions dispatched to IQ (Count)
system.cpu0.iew.dispSquashedInsts               11941                       # Number of squashed instructions skipped by dispatch (Count)
system.cpu0.iew.dispLoadInsts                 2889749                       # Number of dispatched load instructions (Count)
system.cpu0.iew.dispStoreInsts                1761411                       # Number of dispatched store instructions (Count)
system.cpu0.iew.dispNonSpecInsts                  749                       # Number of dispatched non-speculative instructions (Count)
system.cpu0.iew.iqFullEvents                    13455                       # Number of times the IQ has become full, causing a stall (Count)
system.cpu0.iew.lsqFullEvents                  149199                       # Number of times the LSQ has become full, causing a stall (Count)
system.cpu0.iew.memOrderViolationEvents           268                       # Number of memory order violations (Count)
system.cpu0.iew.predictedTakenIncorrect         25265                       # Number of branches that were predicted taken incorrectly (Count)
system.cpu0.iew.predictedNotTakenIncorrect        14329                       # Number of branches that were predicted not taken incorrectly (Count)
system.cpu0.iew.branchMispredicts               39594                       # Number of branch mispredicts detected at execute (Count)
system.cpu0.iew.instsToCommit                22119784                       # Cumulative count of insts sent to commit (Count)
system.cpu0.iew.writebackCount               22106212                       # Cumulative count of insts written-back (Count)
system.cpu0.iew.producerInst                 16821898                       # Number of instructions producing a value (Count)
system.cpu0.iew.consumerInst                 30893577                       # Number of instructions consuming a value (Count)
system.cpu0.iew.wbRate                       1.362839                       # Insts written-back per cycle ((Count/Cycle))
system.cpu0.iew.wbFanout                     0.544511                       # Average fanout of values written-back ((Count/Count))
system.cpu0.interrupts.clk_domain.clock          8000                       # Clock period in ticks (Tick)
system.cpu0.lsq0.forwLoads                     492308                       # Number of loads that had data forwarded from stores (Count)
system.cpu0.lsq0.squashedLoads                 184114                       # Number of loads squashed (Count)
system.cpu0.lsq0.ignoredResponses                  97                       # Number of memory responses ignored because the instruction is squashed (Count)
system.cpu0.lsq0.memOrderViolation                268                       # Number of memory ordering violations (Count)
system.cpu0.lsq0.squashedStores                 57125                       # Number of stores squashed (Count)
system.cpu0.lsq0.rescheduledLoads                2350                       # Number of loads that were rescheduled (Count)
system.cpu0.lsq0.blockedByCache                  2066                       # Number of times an access to memory failed due to the cache being blocked (Count)
system.cpu0.lsq0.loadToUse::samples           2705550                       # Distribution of cycle latency between the first time a load is issued and its completion (Unspecified)
system.cpu0.lsq0.loadToUse::mean            15.112241                       # Distribution of cycle latency between the first time a load is issued and its completion (Unspecified)
system.cpu0.lsq0.loadToUse::stdev          101.628907                       # Distribution of cycle latency between the first time a load is issued and its completion (Unspecified)
system.cpu0.lsq0.loadToUse::0-9               2660025     98.32%     98.32% # Distribution of cycle latency between the first time a load is issued and its completion (Unspecified)
system.cpu0.lsq0.loadToUse::10-19                  61      0.00%     98.32% # Distribution of cycle latency between the first time a load is issued and its completion (Unspecified)
system.cpu0.lsq0.loadToUse::20-29                  75      0.00%     98.32% # Distribution of cycle latency between the first time a load is issued and its completion (Unspecified)
system.cpu0.lsq0.loadToUse::30-39                  68      0.00%     98.32% # Distribution of cycle latency between the first time a load is issued and its completion (Unspecified)
system.cpu0.lsq0.loadToUse::40-49                  72      0.00%     98.33% # Distribution of cycle latency between the first time a load is issued and its completion (Unspecified)
system.cpu0.lsq0.loadToUse::50-59                  92      0.00%     98.33% # Distribution of cycle latency between the first time a load is issued and its completion (Unspecified)
system.cpu0.lsq0.loadToUse::60-69                  87      0.00%     98.33% # Distribution of cycle latency between the first time a load is issued and its completion (Unspecified)
system.cpu0.lsq0.loadToUse::70-79                  45      0.00%     98.34% # Distribution of cycle latency between the first time a load is issued and its completion (Unspecified)
system.cpu0.lsq0.loadToUse::80-89                  59      0.00%     98.34% # Distribution of cycle latency between the first time a load is issued and its completion (Unspecified)
system.cpu0.lsq0.loadToUse::90-99                  66      0.00%     98.34% # Distribution of cycle latency between the first time a load is issued and its completion (Unspecified)
system.cpu0.lsq0.loadToUse::100-109                62      0.00%     98.34% # Distribution of cycle latency between the first time a load is issued and its completion (Unspecified)
system.cpu0.lsq0.loadToUse::110-119                74      0.00%     98.35% # Distribution of cycle latency between the first time a load is issued and its completion (Unspecified)
system.cpu0.lsq0.loadToUse::120-129                67      0.00%     98.35% # Distribution of cycle latency between the first time a load is issued and its completion (Unspecified)
system.cpu0.lsq0.loadToUse::130-139                44      0.00%     98.35% # Distribution of cycle latency between the first time a load is issued and its completion (Unspecified)
system.cpu0.lsq0.loadToUse::140-149                61      0.00%     98.35% # Distribution of cycle latency between the first time a load is issued and its completion (Unspecified)
system.cpu0.lsq0.loadToUse::150-159                54      0.00%     98.35% # Distribution of cycle latency between the first time a load is issued and its completion (Unspecified)
system.cpu0.lsq0.loadToUse::160-169                71      0.00%     98.36% # Distribution of cycle latency between the first time a load is issued and its completion (Unspecified)
system.cpu0.lsq0.loadToUse::170-179               109      0.00%     98.36% # Distribution of cycle latency between the first time a load is issued and its completion (Unspecified)
system.cpu0.lsq0.loadToUse::180-189               573      0.02%     98.38% # Distribution of cycle latency between the first time a load is issued and its completion (Unspecified)
system.cpu0.lsq0.loadToUse::190-199                44      0.00%     98.38% # Distribution of cycle latency between the first time a load is issued and its completion (Unspecified)
system.cpu0.lsq0.loadToUse::200-209                50      0.00%     98.39% # Distribution of cycle latency between the first time a load is issued and its completion (Unspecified)
system.cpu0.lsq0.loadToUse::210-219                59      0.00%     98.39% # Distribution of cycle latency between the first time a load is issued and its completion (Unspecified)
system.cpu0.lsq0.loadToUse::220-229               104      0.00%     98.39% # Distribution of cycle latency between the first time a load is issued and its completion (Unspecified)
system.cpu0.lsq0.loadToUse::230-239               107      0.00%     98.40% # Distribution of cycle latency between the first time a load is issued and its completion (Unspecified)
system.cpu0.lsq0.loadToUse::240-249               541      0.02%     98.42% # Distribution of cycle latency between the first time a load is issued and its completion (Unspecified)
system.cpu0.lsq0.loadToUse::250-259                33      0.00%     98.42% # Distribution of cycle latency between the first time a load is issued and its completion (Unspecified)
system.cpu0.lsq0.loadToUse::260-269                31      0.00%     98.42% # Distribution of cycle latency between the first time a load is issued and its completion (Unspecified)
system.cpu0.lsq0.loadToUse::270-279                47      0.00%     98.42% # Distribution of cycle latency between the first time a load is issued and its completion (Unspecified)
system.cpu0.lsq0.loadToUse::280-289                87      0.00%     98.42% # Distribution of cycle latency between the first time a load is issued and its completion (Unspecified)
system.cpu0.lsq0.loadToUse::290-299               109      0.00%     98.43% # Distribution of cycle latency between the first time a load is issued and its completion (Unspecified)
system.cpu0.lsq0.loadToUse::overflows           42573      1.57%    100.00% # Distribution of cycle latency between the first time a load is issued and its completion (Unspecified)
system.cpu0.lsq0.loadToUse::min_value               2                       # Distribution of cycle latency between the first time a load is issued and its completion (Unspecified)
system.cpu0.lsq0.loadToUse::max_value            2381                       # Distribution of cycle latency between the first time a load is issued and its completion (Unspecified)
system.cpu0.lsq0.loadToUse::total             2705550                       # Distribution of cycle latency between the first time a load is issued and its completion (Unspecified)
system.cpu0.mmu.dtb.rdAccesses                2822550                       # TLB accesses on read requests (Count)
system.cpu0.mmu.dtb.wrAccesses                1729634                       # TLB accesses on write requests (Count)
system.cpu0.mmu.dtb.rdMisses                     3119                       # TLB misses on read requests (Count)
system.cpu0.mmu.dtb.wrMisses                      433                       # TLB misses on write requests (Count)
system.cpu0.mmu.dtb.walker.power_state.pwrStateResidencyTicks::UNDEFINED   8110351000                       # Cumulative time (in ticks) in various power states (Tick)
system.cpu0.mmu.itb.rdAccesses                      0                       # TLB accesses on read requests (Count)
system.cpu0.mmu.itb.wrAccesses                 880269                       # TLB accesses on write requests (Count)
system.cpu0.mmu.itb.rdMisses                        0                       # TLB misses on read requests (Count)
system.cpu0.mmu.itb.wrMisses                     2912                       # TLB misses on write requests (Count)
system.cpu0.mmu.itb.walker.power_state.pwrStateResidencyTicks::UNDEFINED   8110351000                       # Cumulative time (in ticks) in various power states (Tick)
system.cpu0.power_state.pwrStateResidencyTicks::ON   8110351000                       # Cumulative time (in ticks) in various power states (Tick)
system.cpu0.rename.squashCycles                 38254                       # Number of cycles rename is squashing (Cycle)
system.cpu0.rename.idleCycles                 1765642                       # Number of cycles rename is idle (Cycle)
system.cpu0.rename.blockCycles                7132966                       # Number of cycles rename is blocking (Cycle)
system.cpu0.rename.serializeStallCycles         21239                       # count of cycles rename stalled for serializing inst (Cycle)
system.cpu0.rename.runCycles                  2566988                       # Number of cycles rename is running (Cycle)
system.cpu0.rename.unblockCycles              3556108                       # Number of cycles rename is unblocking (Cycle)
system.cpu0.rename.renamedInsts              22973037                       # Number of instructions processed by rename (Count)
system.cpu0.rename.ROBFullEvents               110450                       # Number of times rename has blocked due to ROB full (Count)
system.cpu0.rename.IQFullEvents               1537717                       # Number of times rename has blocked due to IQ full (Count)
system.cpu0.rename.LQFullEvents                159852                       # Number of times rename has blocked due to LQ full (Count)
system.cpu0.rename.SQFullEvents               1690004                       # Number of times rename has blocked due to SQ full (Count)
system.cpu0.rename.fullRegistersEvents           2917                       # Number of times there has been no free registers (Count)
system.cpu0.rename.renamedOperands           50020129                       # Number of destination operands rename has renamed (Count)
system.cpu0.rename.lookups                   90756158                       # Number of register rename lookups that rename has made (Count)
system.cpu0.rename.intLookups                36522073                       # Number of integer rename lookups (Count)
system.cpu0.rename.fpLookups                   186076                       # Number of floating rename lookups (Count)
system.cpu0.rename.committedMaps             46631790                       # Number of HB maps that are committed (Count)
system.cpu0.rename.undoneMaps                 3388112                       # Number of HB maps that are undone due to squashing (Count)
system.cpu0.rename.serializing                    757                       # count of serializing insts renamed (Count)
system.cpu0.rename.tempSerializing                742                       # count of temporary serializing insts renamed (Count)
system.cpu0.rename.skidInsts                  6911117                       # count of insts added to the skid buffer (Count)
system.cpu0.rob.reads                        36822003                       # The number of ROB reads (Count)
system.cpu0.rob.writes                       45609809                       # The number of ROB writes (Count)
system.cpu0.thread_0.numInsts                 9260063                       # Number of Instructions committed (Count)
system.cpu0.thread_0.numOps                  21364182                       # Number of Ops committed (Count)
system.cpu0.thread_0.numMemRefs                     0                       # Number of Memory References (Count)
system.cpu0.workload.numSyscalls                   62                       # Number of system calls (Count)
system.cpu1.numCycles                        16220703                       # Number of cpu cycles simulated (Cycle)
system.cpu1.numWorkItemsStarted                     0                       # Number of work items this cpu started (Count)
system.cpu1.numWorkItemsCompleted                   0                       # Number of work items this cpu completed (Count)
system.cpu1.instsAdded                       23900665                       # Number of instructions added to the IQ (excludes non-spec) (Count)
system.cpu1.nonSpecInstsAdded                     868                       # Number of non-speculative instructions added to the IQ (Count)
system.cpu1.instsIssued                      23383220                       # Number of instructions issued (Count)
system.cpu1.squashedInstsIssued                  2842                       # Number of squashed instructions issued (Count)
system.cpu1.squashedInstsExamined             1372253                       # Number of squashed instructions iterated over during squash; mainly for profiling (Count)
system.cpu1.squashedOperandsExamined          3054794                       # Number of squashed operands that are examined and possibly removed from graph (Count)
system.cpu1.squashedNonSpecRemoved                135                       # Number of squashed non-spec instructions that were removed (Count)
system.cpu1.numIssuedDist::samples           15149552                       # Number of insts issued each cycle (Count)
system.cpu1.numIssuedDist::mean              1.543493                       # Number of insts issued each cycle (Count)
system.cpu1.numIssuedDist::stdev             2.006006                       # Number of insts issued each cycle (Count)
system.cpu1.numIssuedDist::underflows               0      0.00%      0.00% # Number of insts issued each cycle (Count)
system.cpu1.numIssuedDist::0                  8089332     53.40%     53.40% # Number of insts issued each cycle (Count)
system.cpu1.numIssuedDist::1                  1196572      7.90%     61.29% # Number of insts issued each cycle (Count)
system.cpu1.numIssuedDist::2                  1097558      7.24%     68.54% # Number of insts issued each cycle (Count)
system.cpu1.numIssuedDist::3                  1857602     12.26%     80.80% # Number of insts issued each cycle (Count)
system.cpu1.numIssuedDist::4                  1234921      8.15%     88.95% # Number of insts issued each cycle (Count)
system.cpu1.numIssuedDist::5                   944758      6.24%     95.19% # Number of insts issued each cycle (Count)
system.cpu1.numIssuedDist::6                   428060      2.83%     98.01% # Number of insts issued each cycle (Count)
system.cpu1.numIssuedDist::7                   219100      1.45%     99.46% # Number of insts issued each cycle (Count)
system.cpu1.numIssuedDist::8                    81649      0.54%    100.00% # Number of insts issued each cycle (Count)
system.cpu1.numIssuedDist::overflows                0      0.00%    100.00% # Number of insts issued each cycle (Count)
system.cpu1.numIssuedDist::min_value                0                       # Number of insts issued each cycle (Count)
system.cpu1.numIssuedDist::max_value                8                       # Number of insts issued each cycle (Count)
system.cpu1.numIssuedDist::total             15149552                       # Number of insts issued each cycle (Count)
system.cpu1.statFuBusy::No_OpClass                  0      0.00%      0.00% # attempts to use FU when none available (Count)
system.cpu1.statFuBusy::IntAlu                  80000     74.67%     74.67% # attempts to use FU when none available (Count)
system.cpu1.statFuBusy::IntMult                     0      0.00%     74.67% # attempts to use FU when none available (Count)
system.cpu1.statFuBusy::IntDiv                      0      0.00%     74.67% # attempts to use FU when none available (Count)
system.cpu1.statFuBusy::FloatAdd                    0      0.00%     74.67% # attempts to use FU when none available (Count)
system.cpu1.statFuBusy::FloatCmp                    0      0.00%     74.67% # attempts to use FU when none available (Count)
system.cpu1.statFuBusy::FloatCvt                    0      0.00%     74.67% # attempts to use FU when none available (Count)
system.cpu1.statFuBusy::FloatMult                   0      0.00%     74.67% # attempts to use FU when none available (Count)
system.cpu1.statFuBusy::FloatMultAcc                0      0.00%     74.67% # attempts to use FU when none available (Count)
system.cpu1.statFuBusy::FloatDiv                    0      0.00%     74.67% # attempts to use FU when none available (Count)
system.cpu1.statFuBusy::FloatMisc                   0      0.00%     74.67% # attempts to use FU when none available (Count)
system.cpu1.statFuBusy::FloatSqrt                   0      0.00%     74.67% # attempts to use FU when none available (Count)
system.cpu1.statFuBusy::SimdAdd                     0      0.00%     74.67% # attempts to use FU when none available (Count)
system.cpu1.statFuBusy::SimdAddAcc                  0      0.00%     74.67% # attempts to use FU when none available (Count)
system.cpu1.statFuBusy::SimdAlu                   118      0.11%     74.79% # attempts to use FU when none available (Count)
system.cpu1.statFuBusy::SimdCmp                     0      0.00%     74.79% # attempts to use FU when none available (Count)
system.cpu1.statFuBusy::SimdCvt                   137      0.13%     74.91% # attempts to use FU when none available (Count)
system.cpu1.statFuBusy::SimdMisc                    0      0.00%     74.91% # attempts to use FU when none available (Count)
system.cpu1.statFuBusy::SimdMult                    0      0.00%     74.91% # attempts to use FU when none available (Count)
system.cpu1.statFuBusy::SimdMultAcc                 0      0.00%     74.91% # attempts to use FU when none available (Count)
system.cpu1.statFuBusy::SimdShift                 139      0.13%     75.04% # attempts to use FU when none available (Count)
system.cpu1.statFuBusy::SimdShiftAcc                0      0.00%     75.04% # attempts to use FU when none available (Count)
system.cpu1.statFuBusy::SimdDiv                     0      0.00%     75.04% # attempts to use FU when none available (Count)
system.cpu1.statFuBusy::SimdSqrt                    0      0.00%     75.04% # attempts to use FU when none available (Count)
system.cpu1.statFuBusy::SimdFloatAdd                0      0.00%     75.04% # attempts to use FU when none available (Count)
system.cpu1.statFuBusy::SimdFloatAlu                0      0.00%     75.04% # attempts to use FU when none available (Count)
system.cpu1.statFuBusy::SimdFloatCmp                0      0.00%     75.04% # attempts to use FU when none available (Count)
system.cpu1.statFuBusy::SimdFloatCvt                0      0.00%     75.04% # attempts to use FU when none available (Count)
system.cpu1.statFuBusy::SimdFloatDiv                0      0.00%     75.04% # attempts to use FU when none available (Count)
system.cpu1.statFuBusy::SimdFloatMisc               0      0.00%     75.04% # attempts to use FU when none available (Count)
system.cpu1.statFuBusy::SimdFloatMult               0      0.00%     75.04% # attempts to use FU when none available (Count)
system.cpu1.statFuBusy::SimdFloatMultAcc            0      0.00%     75.04% # attempts to use FU when none available (Count)
system.cpu1.statFuBusy::SimdFloatSqrt               0      0.00%     75.04% # attempts to use FU when none available (Count)
system.cpu1.statFuBusy::SimdReduceAdd               0      0.00%     75.04% # attempts to use FU when none available (Count)
system.cpu1.statFuBusy::SimdReduceAlu               0      0.00%     75.04% # attempts to use FU when none available (Count)
system.cpu1.statFuBusy::SimdReduceCmp               0      0.00%     75.04% # attempts to use FU when none available (Count)
system.cpu1.statFuBusy::SimdFloatReduceAdd            0      0.00%     75.04% # attempts to use FU when none available (Count)
system.cpu1.statFuBusy::SimdFloatReduceCmp            0      0.00%     75.04% # attempts to use FU when none available (Count)
system.cpu1.statFuBusy::SimdAes                     0      0.00%     75.04% # attempts to use FU when none available (Count)
system.cpu1.statFuBusy::SimdAesMix                  0      0.00%     75.04% # attempts to use FU when none available (Count)
system.cpu1.statFuBusy::SimdSha1Hash                0      0.00%     75.04% # attempts to use FU when none available (Count)
system.cpu1.statFuBusy::SimdSha1Hash2               0      0.00%     75.04% # attempts to use FU when none available (Count)
system.cpu1.statFuBusy::SimdSha256Hash              0      0.00%     75.04% # attempts to use FU when none available (Count)
system.cpu1.statFuBusy::SimdSha256Hash2             0      0.00%     75.04% # attempts to use FU when none available (Count)
system.cpu1.statFuBusy::SimdShaSigma2               0      0.00%     75.04% # attempts to use FU when none available (Count)
system.cpu1.statFuBusy::SimdShaSigma3               0      0.00%     75.04% # attempts to use FU when none available (Count)
system.cpu1.statFuBusy::SimdPredAlu                 0      0.00%     75.04% # attempts to use FU when none available (Count)
system.cpu1.statFuBusy::MemRead                 12774     11.92%     86.97% # attempts to use FU when none available (Count)
system.cpu1.statFuBusy::MemWrite                12153     11.34%     98.31% # attempts to use FU when none available (Count)
system.cpu1.statFuBusy::FloatMemRead             1366      1.28%     99.59% # attempts to use FU when none available (Count)
system.cpu1.statFuBusy::FloatMemWrite             444      0.41%    100.00% # attempts to use FU when none available (Count)
system.cpu1.statFuBusy::IprAccess                   0      0.00%    100.00% # attempts to use FU when none available (Count)
system.cpu1.statFuBusy::InstPrefetch                0      0.00%    100.00% # attempts to use FU when none available (Count)
system.cpu1.statIssuedInstType_0::No_OpClass        36285      0.16%      0.16% # Number of instructions issued per FU type, per thread (Count)
system.cpu1.statIssuedInstType_0::IntAlu     18429057     78.81%     78.97% # Number of instructions issued per FU type, per thread (Count)
system.cpu1.statIssuedInstType_0::IntMult           38      0.00%     78.97% # Number of instructions issued per FU type, per thread (Count)
system.cpu1.statIssuedInstType_0::IntDiv        38130      0.16%     79.13% # Number of instructions issued per FU type, per thread (Count)
system.cpu1.statIssuedInstType_0::FloatAdd         4207      0.02%     79.15% # Number of instructions issued per FU type, per thread (Count)
system.cpu1.statIssuedInstType_0::FloatCmp            0      0.00%     79.15% # Number of instructions issued per FU type, per thread (Count)
system.cpu1.statIssuedInstType_0::FloatCvt         1438      0.01%     79.16% # Number of instructions issued per FU type, per thread (Count)
system.cpu1.statIssuedInstType_0::FloatMult            0      0.00%     79.16% # Number of instructions issued per FU type, per thread (Count)
system.cpu1.statIssuedInstType_0::FloatMultAcc            0      0.00%     79.16% # Number of instructions issued per FU type, per thread (Count)
system.cpu1.statIssuedInstType_0::FloatDiv            0      0.00%     79.16% # Number of instructions issued per FU type, per thread (Count)
system.cpu1.statIssuedInstType_0::FloatMisc            0      0.00%     79.16% # Number of instructions issued per FU type, per thread (Count)
system.cpu1.statIssuedInstType_0::FloatSqrt            0      0.00%     79.16% # Number of instructions issued per FU type, per thread (Count)
system.cpu1.statIssuedInstType_0::SimdAdd         8264      0.04%     79.19% # Number of instructions issued per FU type, per thread (Count)
system.cpu1.statIssuedInstType_0::SimdAddAcc            0      0.00%     79.19% # Number of instructions issued per FU type, per thread (Count)
system.cpu1.statIssuedInstType_0::SimdAlu        16770      0.07%     79.26% # Number of instructions issued per FU type, per thread (Count)
system.cpu1.statIssuedInstType_0::SimdCmp            0      0.00%     79.26% # Number of instructions issued per FU type, per thread (Count)
system.cpu1.statIssuedInstType_0::SimdCvt        18491      0.08%     79.34% # Number of instructions issued per FU type, per thread (Count)
system.cpu1.statIssuedInstType_0::SimdMisc         8665      0.04%     79.38% # Number of instructions issued per FU type, per thread (Count)
system.cpu1.statIssuedInstType_0::SimdMult            0      0.00%     79.38% # Number of instructions issued per FU type, per thread (Count)
system.cpu1.statIssuedInstType_0::SimdMultAcc            0      0.00%     79.38% # Number of instructions issued per FU type, per thread (Count)
system.cpu1.statIssuedInstType_0::SimdShift         2473      0.01%     79.39% # Number of instructions issued per FU type, per thread (Count)
system.cpu1.statIssuedInstType_0::SimdShiftAcc            0      0.00%     79.39% # Number of instructions issued per FU type, per thread (Count)
system.cpu1.statIssuedInstType_0::SimdDiv            0      0.00%     79.39% # Number of instructions issued per FU type, per thread (Count)
system.cpu1.statIssuedInstType_0::SimdSqrt            0      0.00%     79.39% # Number of instructions issued per FU type, per thread (Count)
system.cpu1.statIssuedInstType_0::SimdFloatAdd            0      0.00%     79.39% # Number of instructions issued per FU type, per thread (Count)
system.cpu1.statIssuedInstType_0::SimdFloatAlu            0      0.00%     79.39% # Number of instructions issued per FU type, per thread (Count)
system.cpu1.statIssuedInstType_0::SimdFloatCmp            0      0.00%     79.39% # Number of instructions issued per FU type, per thread (Count)
system.cpu1.statIssuedInstType_0::SimdFloatCvt            0      0.00%     79.39% # Number of instructions issued per FU type, per thread (Count)
system.cpu1.statIssuedInstType_0::SimdFloatDiv            0      0.00%     79.39% # Number of instructions issued per FU type, per thread (Count)
system.cpu1.statIssuedInstType_0::SimdFloatMisc            0      0.00%     79.39% # Number of instructions issued per FU type, per thread (Count)
system.cpu1.statIssuedInstType_0::SimdFloatMult            0      0.00%     79.39% # Number of instructions issued per FU type, per thread (Count)
system.cpu1.statIssuedInstType_0::SimdFloatMultAcc            0      0.00%     79.39% # Number of instructions issued per FU type, per thread (Count)
system.cpu1.statIssuedInstType_0::SimdFloatSqrt            0      0.00%     79.39% # Number of instructions issued per FU type, per thread (Count)
system.cpu1.statIssuedInstType_0::SimdReduceAdd            0      0.00%     79.39% # Number of instructions issued per FU type, per thread (Count)
system.cpu1.statIssuedInstType_0::SimdReduceAlu            0      0.00%     79.39% # Number of instructions issued per FU type, per thread (Count)
system.cpu1.statIssuedInstType_0::SimdReduceCmp            0      0.00%     79.39% # Number of instructions issued per FU type, per thread (Count)
system.cpu1.statIssuedInstType_0::SimdFloatReduceAdd            0      0.00%     79.39% # Number of instructions issued per FU type, per thread (Count)
system.cpu1.statIssuedInstType_0::SimdFloatReduceCmp            0      0.00%     79.39% # Number of instructions issued per FU type, per thread (Count)
system.cpu1.statIssuedInstType_0::SimdAes            0      0.00%     79.39% # Number of instructions issued per FU type, per thread (Count)
system.cpu1.statIssuedInstType_0::SimdAesMix            0      0.00%     79.39% # Number of instructions issued per FU type, per thread (Count)
system.cpu1.statIssuedInstType_0::SimdSha1Hash            0      0.00%     79.39% # Number of instructions issued per FU type, per thread (Count)
system.cpu1.statIssuedInstType_0::SimdSha1Hash2            0      0.00%     79.39% # Number of instructions issued per FU type, per thread (Count)
system.cpu1.statIssuedInstType_0::SimdSha256Hash            0      0.00%     79.39% # Number of instructions issued per FU type, per thread (Count)
system.cpu1.statIssuedInstType_0::SimdSha256Hash2            0      0.00%     79.39% # Number of instructions issued per FU type, per thread (Count)
system.cpu1.statIssuedInstType_0::SimdShaSigma2            0      0.00%     79.39% # Number of instructions issued per FU type, per thread (Count)
system.cpu1.statIssuedInstType_0::SimdShaSigma3            0      0.00%     79.39% # Number of instructions issued per FU type, per thread (Count)
system.cpu1.statIssuedInstType_0::SimdPredAlu            0      0.00%     79.39% # Number of instructions issued per FU type, per thread (Count)
system.cpu1.statIssuedInstType_0::MemRead      2953457     12.63%     92.02% # Number of instructions issued per FU type, per thread (Count)
system.cpu1.statIssuedInstType_0::MemWrite      1815311      7.76%     99.78% # Number of instructions issued per FU type, per thread (Count)
system.cpu1.statIssuedInstType_0::FloatMemRead        32998      0.14%     99.92% # Number of instructions issued per FU type, per thread (Count)
system.cpu1.statIssuedInstType_0::FloatMemWrite        17636      0.08%    100.00% # Number of instructions issued per FU type, per thread (Count)
system.cpu1.statIssuedInstType_0::IprAccess            0      0.00%    100.00% # Number of instructions issued per FU type, per thread (Count)
system.cpu1.statIssuedInstType_0::InstPrefetch            0      0.00%    100.00% # Number of instructions issued per FU type, per thread (Count)
system.cpu1.statIssuedInstType_0::total      23383220                       # Number of instructions issued per FU type, per thread (Count)
system.cpu1.issueRate                        1.441566                       # Inst issue rate ((Count/Cycle))
system.cpu1.fuBusy                             107131                       # FU busy when requested (Count)
system.cpu1.fuBusyRate                       0.004582                       # FU busy rate (busy events/executed inst) ((Count/Count))
system.cpu1.intInstQueueReads                61799274                       # Number of integer instruction queue reads (Count)
system.cpu1.intInstQueueWrites               25101137                       # Number of integer instruction queue writes (Count)
system.cpu1.intInstQueueWakeupAccesses       23171979                       # Number of integer instruction queue wakeup accesses (Count)
system.cpu1.fpInstQueueReads                   226690                       # Number of floating instruction queue reads (Count)
system.cpu1.fpInstQueueWrites                  172913                       # Number of floating instruction queue writes (Count)
system.cpu1.fpInstQueueWakeupAccesses          108300                       # Number of floating instruction queue wakeup accesses (Count)
system.cpu1.vecInstQueueReads                       0                       # Number of vector instruction queue reads (Count)
system.cpu1.vecInstQueueWrites                      0                       # Number of vector instruction queue writes (Count)
system.cpu1.vecInstQueueWakeupAccesses              0                       # Number of vector instruction queue wakeup accesses (Count)
system.cpu1.intAluAccesses                   23339772                       # Number of integer alu accesses (Count)
system.cpu1.fpAluAccesses                      114294                       # Number of floating point alu accesses (Count)
system.cpu1.vecAluAccesses                          0                       # Number of vector alu accesses (Count)
system.cpu1.numInsts                         23320693                       # Number of executed instructions (Count)
system.cpu1.numLoadInsts                      2974177                       # Number of load instructions executed (Count)
system.cpu1.numSquashedInsts                    62526                       # Number of squashed instructions skipped in execute (Count)
system.cpu1.numSwp                                  0                       # Number of swp insts executed (Count)
system.cpu1.numNop                                  0                       # Number of nop insts executed (Count)
system.cpu1.numRefs                           4805014                       # Number of memory reference insts executed (Count)
system.cpu1.numBranches                       1910602                       # Number of branches executed (Count)
[...]
system.ruby.network.ext_out_link_utilization      4182216                       (Unspecified)
system.ruby.network.flit_network_latency |104546768000                       |207387851500                       | 28845466500                       (Unspecified)
system.ruby.network.flit_queueing_latency |  2110905500                       |  1960532000                       |   147996000                       (Unspecified)
system.ruby.network.flits_injected       |      991240     23.70%     23.70% |     2894984     69.22%     92.92% |      295992      7.08%    100.00% (Unspecified)
system.ruby.network.flits_injected::total      4182216                       (Unspecified)
system.ruby.network.flits_received       |      991240     23.70%     23.70% |     2894984     69.22%     92.92% |      295992      7.08%    100.00% (Unspecified)
system.ruby.network.flits_received::total      4182216                       (Unspecified)
system.ruby.network.int_link_utilization     12632531                       (Unspecified)
system.ruby.network.packet_network_latency | 78522078000                       | 68667865000                       | 28845466500                       (Unspecified)
system.ruby.network.packet_queueing_latency |  1732855500                       |   522808000                       |   147996000                       (Unspecified)
system.ruby.network.packets_injected     |      809264     42.27%     42.27% |      809264     42.27%     84.54% |      295992     15.46%    100.00% (Unspecified)
system.ruby.network.packets_injected::total      1914520                       (Unspecified)
system.ruby.network.packets_received     |      809264     42.27%     42.27% |      809264     42.27%     84.54% |      295992     15.46%    100.00% (Unspecified)
system.ruby.network.packets_received::total      1914520                       (Unspecified)
system.ruby.network.routers00.Var_1                 0                       (Unspecified)
system.ruby.network.routers00.Var_2                 0                       (Unspecified)
system.ruby.network.routers00.Var_3                 0                       (Unspecified)
system.ruby.network.routers00.all_counts            0                       (Unspecified)
system.ruby.network.routers00.buffer_reads       747103                       (Unspecified)
system.ruby.network.routers00.buffer_writes       747103                       (Unspecified)
system.ruby.network.routers00.crossbar_activity       747103                       (Unspecified)
system.ruby.network.routers00.detour_counts        53295                       (Unspecified)
system.ruby.network.routers00.regular_var            0                       (Unspecified)
system.ruby.network.routers00.risk_counts            0                       (Unspecified)
system.ruby.network.routers00.sw_input_arbiter_activity       752793                       (Unspecified)
system.ruby.network.routers00.sw_output_arbiter_activity       747103                       (Unspecified)
system.ruby.network.routers01.Var_1                 0                       (Unspecified)
system.ruby.network.routers01.Var_2                 0                       (Unspecified)
system.ruby.network.routers01.Var_3                 0                       (Unspecified)
system.ruby.network.routers01.all_counts            0                       (Unspecified)
system.ruby.network.routers01.buffer_reads      1069929                       (Unspecified)
system.ruby.network.routers01.buffer_writes      1069929                       (Unspecified)
system.ruby.network.routers01.crossbar_activity      1069929                       (Unspecified)
system.ruby.network.routers01.detour_counts        53483                       (Unspecified)
system.ruby.network.routers01.regular_var            0                       (Unspecified)
system.ruby.network.routers01.risk_counts            0                       (Unspecified)
system.ruby.network.routers01.sw_input_arbiter_activity      1082252                       (Unspecified)
system.ruby.network.routers01.sw_output_arbiter_activity      1069929                       (Unspecified)
system.ruby.network.routers02.Var_1                 0                       (Unspecified)
system.ruby.network.routers02.Var_2                 0                       (Unspecified)
system.ruby.network.routers02.Var_3                 0                       (Unspecified)
system.ruby.network.routers02.all_counts            0                       (Unspecified)
system.ruby.network.routers02.buffer_reads      1073742                       (Unspecified)
system.ruby.network.routers02.buffer_writes      1073742                       (Unspecified)
system.ruby.network.routers02.crossbar_activity      1073742                       (Unspecified)
system.ruby.network.routers02.detour_counts        53377                       (Unspecified)
system.ruby.network.routers02.regular_var            0                       (Unspecified)
system.ruby.network.routers02.risk_counts            0                       (Unspecified)
system.ruby.network.routers02.sw_input_arbiter_activity      1086109                       (Unspecified)
system.ruby.network.routers02.sw_output_arbiter_activity      1073742                       (Unspecified)
system.ruby.network.routers03.Var_1                 0                       (Unspecified)
system.ruby.network.routers03.Var_2                 0                       (Unspecified)
system.ruby.network.routers03.Var_3                 0                       (Unspecified)
system.ruby.network.routers03.all_counts            0                       (Unspecified)
system.ruby.network.routers03.buffer_reads       738622                       (Unspecified)
system.ruby.network.routers03.buffer_writes       738622                       (Unspecified)
system.ruby.network.routers03.crossbar_activity       738622                       (Unspecified)
system.ruby.network.routers03.detour_counts        53428                       (Unspecified)
system.ruby.network.routers03.regular_var            0                       (Unspecified)
system.ruby.network.routers03.risk_counts            0                       (Unspecified)
system.ruby.network.routers03.sw_input_arbiter_activity       744045                       (Unspecified)
system.ruby.network.routers03.sw_output_arbiter_activity       738622                       (Unspecified)
system.ruby.network.routers04.Var_1                 0                       (Unspecified)
system.ruby.network.routers04.Var_2                 0                       (Unspecified)
system.ruby.network.routers04.Var_3                 0                       (Unspecified)
system.ruby.network.routers04.all_counts            0                       (Unspecified)
system.ruby.network.routers04.buffer_reads      1045295                       (Unspecified)
system.ruby.network.routers04.buffer_writes      1045295                       (Unspecified)
system.ruby.network.routers04.crossbar_activity      1045295                       (Unspecified)
system.ruby.network.routers04.detour_counts        53448                       (Unspecified)
system.ruby.network.routers04.regular_var            0                       (Unspecified)
system.ruby.network.routers04.risk_counts            0                       (Unspecified)
system.ruby.network.routers04.sw_input_arbiter_activity      1057227                       (Unspecified)
system.ruby.network.routers04.sw_output_arbiter_activity      1045295                       (Unspecified)
system.ruby.network.routers05.Var_1                 0                       (Unspecified)
system.ruby.network.routers05.Var_2                 0                       (Unspecified)
system.ruby.network.routers05.Var_3                 0                       (Unspecified)
system.ruby.network.routers05.all_counts            0                       (Unspecified)
system.ruby.network.routers05.buffer_reads      1368070                       (Unspecified)
system.ruby.network.routers05.buffer_writes      1368070                       (Unspecified)
system.ruby.network.routers05.crossbar_activity      1368070                       (Unspecified)
system.ruby.network.routers05.detour_counts        53387                       (Unspecified)
system.ruby.network.routers05.regular_var            0                       (Unspecified)
system.ruby.network.routers05.risk_counts            0                       (Unspecified)
system.ruby.network.routers05.sw_input_arbiter_activity      1386280                       (Unspecified)
system.ruby.network.routers05.sw_output_arbiter_activity      1368070                       (Unspecified)
system.ruby.network.routers06.Var_1                 0                       (Unspecified)
system.ruby.network.routers06.Var_2                 0                       (Unspecified)
system.ruby.network.routers06.Var_3                 0                       (Unspecified)
system.ruby.network.routers06.all_counts            0                       (Unspecified)
system.ruby.network.routers06.buffer_reads      1368207                       (Unspecified)
system.ruby.network.routers06.buffer_writes      1368207                       (Unspecified)
system.ruby.network.routers06.crossbar_activity      1368207                       (Unspecified)
system.ruby.network.routers06.detour_counts        53381                       (Unspecified)
system.ruby.network.routers06.regular_var            0                       (Unspecified)
system.ruby.network.routers06.risk_counts            0                       (Unspecified)
system.ruby.network.routers06.sw_input_arbiter_activity      1386923                       (Unspecified)
system.ruby.network.routers06.sw_output_arbiter_activity      1368207                       (Unspecified)
system.ruby.network.routers07.Var_1                 0                       (Unspecified)
system.ruby.network.routers07.Var_2                 0                       (Unspecified)
system.ruby.network.routers07.Var_3                 0                       (Unspecified)
system.ruby.network.routers07.all_counts            0                       (Unspecified)
system.ruby.network.routers07.buffer_reads      1031983                       (Unspecified)
system.ruby.network.routers07.buffer_writes      1031983                       (Unspecified)
system.ruby.network.routers07.crossbar_activity      1031983                       (Unspecified)
system.ruby.network.routers07.detour_counts        53578                       (Unspecified)
system.ruby.network.routers07.regular_var            0                       (Unspecified)
system.ruby.network.routers07.risk_counts            0                       (Unspecified)
system.ruby.network.routers07.sw_input_arbiter_activity      1043444                       (Unspecified)
system.ruby.network.routers07.sw_output_arbiter_activity      1031983                       (Unspecified)
system.ruby.network.routers08.Var_1                 0                       (Unspecified)
system.ruby.network.routers08.Var_2                 0                       (Unspecified)
system.ruby.network.routers08.Var_3                 0                       (Unspecified)
system.ruby.network.routers08.all_counts            0                       (Unspecified)
system.ruby.network.routers08.buffer_reads      1040075                       (Unspecified)
system.ruby.network.routers08.buffer_writes      1040075                       (Unspecified)
system.ruby.network.routers08.crossbar_activity      1040075                       (Unspecified)
system.ruby.network.routers08.detour_counts        53409                       (Unspecified)
system.ruby.network.routers08.regular_var            0                       (Unspecified)
system.ruby.network.routers08.risk_counts            0                       (Unspecified)
system.ruby.network.routers08.sw_input_arbiter_activity      1051529                       (Unspecified)
system.ruby.network.routers08.sw_output_arbiter_activity      1040075                       (Unspecified)
system.ruby.network.routers09.Var_1                 0                       (Unspecified)
system.ruby.network.routers09.Var_2                 0                       (Unspecified)
system.ruby.network.routers09.Var_3                 0                       (Unspecified)
system.ruby.network.routers09.all_counts            0                       (Unspecified)
system.ruby.network.routers09.buffer_reads      1365656                       (Unspecified)
system.ruby.network.routers09.buffer_writes      1365656                       (Unspecified)
system.ruby.network.routers09.crossbar_activity      1365656                       (Unspecified)
system.ruby.network.routers09.detour_counts        53292                       (Unspecified)
system.ruby.network.routers09.regular_var            0                       (Unspecified)
system.ruby.network.routers09.risk_counts            0                       (Unspecified)
system.ruby.network.routers09.sw_input_arbiter_activity      1383762                       (Unspecified)
system.ruby.network.routers09.sw_output_arbiter_activity      1365656                       (Unspecified)
system.ruby.network.routers10.Var_1                 0                       (Unspecified)
system.ruby.network.routers10.Var_2                 0                       (Unspecified)
system.ruby.network.routers10.Var_3                 0                       (Unspecified)
system.ruby.network.routers10.all_counts            0                       (Unspecified)
system.ruby.network.routers10.buffer_reads      1362151                       (Unspecified)
system.ruby.network.routers10.buffer_writes      1362151                       (Unspecified)
system.ruby.network.routers10.crossbar_activity      1362151                       (Unspecified)
system.ruby.network.routers10.detour_counts        53387                       (Unspecified)
system.ruby.network.routers10.regular_var            0                       (Unspecified)
system.ruby.network.routers10.risk_counts            0                       (Unspecified)
system.ruby.network.routers10.sw_input_arbiter_activity      1380395                       (Unspecified)
system.ruby.network.routers10.sw_output_arbiter_activity      1362151                       (Unspecified)
system.ruby.network.routers11.Var_1                 0                       (Unspecified)
system.ruby.network.routers11.Var_2                 0                       (Unspecified)
system.ruby.network.routers11.Var_3                 0                       (Unspecified)
system.ruby.network.routers11.all_counts            0                       (Unspecified)
system.ruby.network.routers11.buffer_reads      1026531                       (Unspecified)
system.ruby.network.routers11.buffer_writes      1026531                       (Unspecified)
system.ruby.network.routers11.crossbar_activity      1026531                       (Unspecified)
system.ruby.network.routers11.detour_counts        53587                       (Unspecified)
system.ruby.network.routers11.regular_var            0                       (Unspecified)
system.ruby.network.routers11.risk_counts            0                       (Unspecified)
system.ruby.network.routers11.sw_input_arbiter_activity      1037746                       (Unspecified)
system.ruby.network.routers11.sw_output_arbiter_activity      1026531                       (Unspecified)
system.ruby.network.routers12.Var_1                 0                       (Unspecified)
system.ruby.network.routers12.Var_2                 0                       (Unspecified)
system.ruby.network.routers12.Var_3                 0                       (Unspecified)
system.ruby.network.routers12.all_counts            0                       (Unspecified)
system.ruby.network.routers12.buffer_reads       733988                       (Unspecified)
system.ruby.network.routers12.buffer_writes       733988                       (Unspecified)
system.ruby.network.routers12.crossbar_activity       733988                       (Unspecified)
system.ruby.network.routers12.detour_counts        53474                       (Unspecified)
system.ruby.network.routers12.regular_var            0                       (Unspecified)
system.ruby.network.routers12.risk_counts            0                       (Unspecified)
system.ruby.network.routers12.sw_input_arbiter_activity       739479                       (Unspecified)
system.ruby.network.routers12.sw_output_arbiter_activity       733988                       (Unspecified)
system.ruby.network.routers13.Var_1                 0                       (Unspecified)
system.ruby.network.routers13.Var_2                 0                       (Unspecified)
system.ruby.network.routers13.Var_3                 0                       (Unspecified)
system.ruby.network.routers13.all_counts            0                       (Unspecified)
system.ruby.network.routers13.buffer_reads      1059582                       (Unspecified)
system.ruby.network.routers13.buffer_writes      1059582                       (Unspecified)
system.ruby.network.routers13.crossbar_activity      1059582                       (Unspecified)
system.ruby.network.routers13.detour_counts        53376                       (Unspecified)
system.ruby.network.routers13.regular_var            0                       (Unspecified)
system.ruby.network.routers13.risk_counts            0                       (Unspecified)
system.ruby.network.routers13.sw_input_arbiter_activity      1071537                       (Unspecified)
system.ruby.network.routers13.sw_output_arbiter_activity      1059582                       (Unspecified)
system.ruby.network.routers14.Var_1                 0                       (Unspecified)
system.ruby.network.routers14.Var_2                 0                       (Unspecified)
system.ruby.network.routers14.Var_3                 0                       (Unspecified)
system.ruby.network.routers14.all_counts            0                       (Unspecified)
system.ruby.network.routers14.buffer_reads      1054876                       (Unspecified)
system.ruby.network.routers14.buffer_writes      1054876                       (Unspecified)
system.ruby.network.routers14.crossbar_activity      1054876                       (Unspecified)
system.ruby.network.routers14.detour_counts        53587                       (Unspecified)
system.ruby.network.routers14.regular_var            0                       (Unspecified)
system.ruby.network.routers14.risk_counts            0                       (Unspecified)
system.ruby.network.routers14.sw_input_arbiter_activity      1067003                       (Unspecified)
system.ruby.network.routers14.sw_output_arbiter_activity      1054876                       (Unspecified)
system.ruby.network.routers15.Var_1                 0                       (Unspecified)
system.ruby.network.routers15.Var_2                 0                       (Unspecified)
system.ruby.network.routers15.Var_3                 0                       (Unspecified)
system.ruby.network.routers15.all_counts            0                       (Unspecified)
system.ruby.network.routers15.buffer_reads       728937                       (Unspecified)
system.ruby.network.routers15.buffer_writes       728937                       (Unspecified)
system.ruby.network.routers15.crossbar_activity       728937                       (Unspecified)
system.ruby.network.routers15.detour_counts        53555                       (Unspecified)
system.ruby.network.routers15.regular_var            0                       (Unspecified)
system.ruby.network.routers15.risk_counts            0                       (Unspecified)
system.ruby.network.routers15.sw_input_arbiter_activity       734284                       (Unspecified)
system.ruby.network.routers15.sw_output_arbiter_activity       728937                       (Unspecified)

---------- End Simulation Statistics   ----------
