
---------- Begin Simulation Statistics ----------
simSeconds                                   0.007685                       # Number of seconds simulated (Second)
simTicks                                   7684681000                       # Number of ticks simulated (Tick)
finalTick                                  7684681000                       # Number of ticks from beginning of simulation (restored from checkpoints and never reset) (Tick)
simFreq                                  1000000000000                       # The number of ticks per simulated second ((Tick/Second))
hostSeconds                                   2225.18                       # Real time elapsed on the host (Second)
hostTickRate                                  3453506                       # The number of ticks simulated per host second (ticks/s) ((Tick/Second))
hostMemory                                   11409196                       # Number of bytes of host memory used (Byte)
simInsts                                    151748953                       # Number of instructions simulated (Count)
simOps                                      350789035                       # Number of ops (including micro ops) simulated (Count)
hostInstRate                                    68196                       # Simulator instruction rate (inst/s) ((Count/Second))
hostOpRate                                     157645                       # Simulator op (including micro ops) rate (op/s) ((Count/Second))
system.clk_domain.clock                          1000                       # Clock period in ticks (Tick)
system.cpu0.numCycles                        15369363                       # Number of cpu cycles simulated (Cycle)
system.cpu0.numWorkItemsStarted                     0                       # Number of work items this cpu started (Count)
system.cpu0.numWorkItemsCompleted                   0                       # Number of work items this cpu completed (Count)
system.cpu0.instsAdded                       22100188                       # Number of instructions added to the IQ (excludes non-spec) (Count)
system.cpu0.nonSpecInstsAdded                     868                       # Number of non-speculative instructions added to the IQ (Count)
system.cpu0.instsIssued                      21599682                       # Number of instructions issued (Count)
system.cpu0.squashedInstsIssued                  2860                       # Number of squashed instructions issued (Count)
system.cpu0.squashedInstsExamined             1354685                       # Number of squashed instructions iterated over during squash; mainly for profiling (Count)
system.cpu0.squashedOperandsExamined          2963045                       # Number of squashed operands that are examined and possibly removed from graph (Count)
system.cpu0.squashedNonSpecRemoved                135                       # Number of squashed non-spec instructions that were removed (Count)
system.cpu0.numIssuedDist::samples           14295835                       # Number of insts issued each cycle (Count)
system.cpu0.numIssuedDist::mean              1.510907                       # Number of insts issued each cycle (Count)
system.cpu0.numIssuedDist::stdev             1.982700                       # Number of insts issued each cycle (Count)
system.cpu0.numIssuedDist::underflows               0      0.00%      0.00% # Number of insts issued each cycle (Count)
system.cpu0.numIssuedDist::0                  7754200     54.24%     54.24% # Number of insts issued each cycle (Count)
system.cpu0.numIssuedDist::1                  1101546      7.71%     61.95% # Number of insts issued each cycle (Count)
system.cpu0.numIssuedDist::2                  1070658      7.49%     69.44% # Number of insts issued each cycle (Count)
system.cpu0.numIssuedDist::3                  1595965     11.16%     80.60% # Number of insts issued each cycle (Count)
system.cpu0.numIssuedDist::4                  1184493      8.29%     88.89% # Number of insts issued each cycle (Count)
system.cpu0.numIssuedDist::5                   970089      6.79%     95.67% # Number of insts issued each cycle (Count)
system.cpu0.numIssuedDist::6                   415690      2.91%     98.58% # Number of insts issued each cycle (Count)
system.cpu0.numIssuedDist::7                   139184      0.97%     99.55% # Number of insts issued each cycle (Count)
system.cpu0.numIssuedDist::8                    64010      0.45%    100.00% # Number of insts issued each cycle (Count)
system.cpu0.numIssuedDist::overflows                0      0.00%    100.00% # Number of insts issued each cycle (Count)
system.cpu0.numIssuedDist::min_value                0                       # Number of insts issued each cycle (Count)
system.cpu0.numIssuedDist::max_value                8                       # Number of insts issued each cycle (Count)
system.cpu0.numIssuedDist::total             14295835                       # Number of insts issued each cycle (Count)
system.cpu0.statFuBusy::No_OpClass                  0      0.00%      0.00% # attempts to use FU when none available (Count)
system.cpu0.statFuBusy::IntAlu                  48676     66.29%     66.29% # attempts to use FU when none available (Count)
system.cpu0.statFuBusy::IntMult                     0      0.00%     66.29% # attempts to use FU when none available (Count)
system.cpu0.statFuBusy::IntDiv                      0      0.00%     66.29% # attempts to use FU when none available (Count)
system.cpu0.statFuBusy::FloatAdd                    0      0.00%     66.29% # attempts to use FU when none available (Count)
system.cpu0.statFuBusy::FloatCmp                    0      0.00%     66.29% # attempts to use FU when none available (Count)
system.cpu0.statFuBusy::FloatCvt                    1      0.00%     66.29% # attempts to use FU when none available (Count)
system.cpu0.statFuBusy::FloatMult                   0      0.00%     66.29% # attempts to use FU when none available (Count)
system.cpu0.statFuBusy::FloatMultAcc                0      0.00%     66.29% # attempts to use FU when none available (Count)
system.cpu0.statFuBusy::FloatDiv                    0      0.00%     66.29% # attempts to use FU when none available (Count)
system.cpu0.statFuBusy::FloatMisc                   0      0.00%     66.29% # attempts to use FU when none available (Count)
system.cpu0.statFuBusy::FloatSqrt                   0      0.00%     66.29% # attempts to use FU when none available (Count)
system.cpu0.statFuBusy::SimdAdd                     0      0.00%     66.29% # attempts to use FU when none available (Count)
system.cpu0.statFuBusy::SimdAddAcc                  0      0.00%     66.29% # attempts to use FU when none available (Count)
system.cpu0.statFuBusy::SimdAlu                   119      0.16%     66.46% # attempts to use FU when none available (Count)
system.cpu0.statFuBusy::SimdCmp                     0      0.00%     66.46% # attempts to use FU when none available (Count)
system.cpu0.statFuBusy::SimdCvt                   126      0.17%     66.63% # attempts to use FU when none available (Count)
system.cpu0.statFuBusy::SimdMisc                    0      0.00%     66.63% # attempts to use FU when none available (Count)
system.cpu0.statFuBusy::SimdMult                    0      0.00%     66.63% # attempts to use FU when none available (Count)
system.cpu0.statFuBusy::SimdMultAcc                 0      0.00%     66.63% # attempts to use FU when none available (Count)
system.cpu0.statFuBusy::SimdShift                 134      0.18%     66.81% # attempts to use FU when none available (Count)
system.cpu0.statFuBusy::SimdShiftAcc                0      0.00%     66.81% # attempts to use FU when none available (Count)
system.cpu0.statFuBusy::SimdDiv                     0      0.00%     66.81% # attempts to use FU when none available (Count)
system.cpu0.statFuBusy::SimdSqrt                    0      0.00%     66.81% # attempts to use FU when none available (Count)
system.cpu0.statFuBusy::SimdFloatAdd                0      0.00%     66.81% # attempts to use FU when none available (Count)
system.cpu0.statFuBusy::SimdFloatAlu                0      0.00%     66.81% # attempts to use FU when none available (Count)
system.cpu0.statFuBusy::SimdFloatCmp                0      0.00%     66.81% # attempts to use FU when none available (Count)
system.cpu0.statFuBusy::SimdFloatCvt                0      0.00%     66.81% # attempts to use FU when none available (Count)
system.cpu0.statFuBusy::SimdFloatDiv                0      0.00%     66.81% # attempts to use FU when none available (Count)
system.cpu0.statFuBusy::SimdFloatMisc               0      0.00%     66.81% # attempts to use FU when none available (Count)
system.cpu0.statFuBusy::SimdFloatMult               0      0.00%     66.81% # attempts to use FU when none available (Count)
system.cpu0.statFuBusy::SimdFloatMultAcc            0      0.00%     66.81% # attempts to use FU when none available (Count)
system.cpu0.statFuBusy::SimdFloatSqrt               0      0.00%     66.81% # attempts to use FU when none available (Count)
system.cpu0.statFuBusy::SimdReduceAdd               0      0.00%     66.81% # attempts to use FU when none available (Count)
system.cpu0.statFuBusy::SimdReduceAlu               0      0.00%     66.81% # attempts to use FU when none available (Count)
system.cpu0.statFuBusy::SimdReduceCmp               0      0.00%     66.81% # attempts to use FU when none available (Count)
system.cpu0.statFuBusy::SimdFloatReduceAdd            0      0.00%     66.81% # attempts to use FU when none available (Count)
system.cpu0.statFuBusy::SimdFloatReduceCmp            0      0.00%     66.81% # attempts to use FU when none available (Count)
system.cpu0.statFuBusy::SimdAes                     0      0.00%     66.81% # attempts to use FU when none available (Count)
system.cpu0.statFuBusy::SimdAesMix                  0      0.00%     66.81% # attempts to use FU when none available (Count)
system.cpu0.statFuBusy::SimdSha1Hash                0      0.00%     66.81% # attempts to use FU when none available (Count)
system.cpu0.statFuBusy::SimdSha1Hash2               0      0.00%     66.81% # attempts to use FU when none available (Count)
system.cpu0.statFuBusy::SimdSha256Hash              0      0.00%     66.81% # attempts to use FU when none available (Count)
system.cpu0.statFuBusy::SimdSha256Hash2             0      0.00%     66.81% # attempts to use FU when none available (Count)
system.cpu0.statFuBusy::SimdShaSigma2               0      0.00%     66.81% # attempts to use FU when none available (Count)
system.cpu0.statFuBusy::SimdShaSigma3               0      0.00%     66.81% # attempts to use FU when none available (Count)
system.cpu0.statFuBusy::SimdPredAlu                 0      0.00%     66.81% # attempts to use FU when none available (Count)
system.cpu0.statFuBusy::MemRead                 12808     17.44%     84.25% # attempts to use FU when none available (Count)
system.cpu0.statFuBusy::MemWrite                 9748     13.28%     97.53% # attempts to use FU when none available (Count)
system.cpu0.statFuBusy::FloatMemRead             1361      1.85%     99.38% # attempts to use FU when none available (Count)
system.cpu0.statFuBusy::FloatMemWrite             453      0.62%    100.00% # attempts to use FU when none available (Count)
system.cpu0.statFuBusy::IprAccess                   0      0.00%    100.00% # attempts to use FU when none available (Count)
system.cpu0.statFuBusy::InstPrefetch                0      0.00%    100.00% # attempts to use FU when none available (Count)
system.cpu0.statIssuedInstType_0::No_OpClass        38351      0.18%      0.18% # Number of instructions issued per FU type, per thread (Count)
system.cpu0.statIssuedInstType_0::IntAlu     17020960     78.80%     78.98% # Number of instructions issued per FU type, per thread (Count)
system.cpu0.statIssuedInstType_0::IntMult           35      0.00%     78.98% # Number of instructions issued per FU type, per thread (Count)
system.cpu0.statIssuedInstType_0::IntDiv        38131      0.18%     79.16% # Number of instructions issued per FU type, per thread (Count)
system.cpu0.statIssuedInstType_0::FloatAdd         4226      0.02%     79.18% # Number of instructions issued per FU type, per thread (Count)
system.cpu0.statIssuedInstType_0::FloatCmp            0      0.00%     79.18% # Number of instructions issued per FU type, per thread (Count)
system.cpu0.statIssuedInstType_0::FloatCvt         1426      0.01%     79.18% # Number of instructions issued per FU type, per thread (Count)
system.cpu0.statIssuedInstType_0::FloatMult            0      0.00%     79.18% # Number of instructions issued per FU type, per thread (Count)
system.cpu0.statIssuedInstType_0::FloatMultAcc            0      0.00%     79.18% # Number of instructions issued per FU type, per thread (Count)
system.cpu0.statIssuedInstType_0::FloatDiv            0      0.00%     79.18% # Number of instructions issued per FU type, per thread (Count)
system.cpu0.statIssuedInstType_0::FloatMisc            0      0.00%     79.18% # Number of instructions issued per FU type, per thread (Count)
system.cpu0.statIssuedInstType_0::FloatSqrt            0      0.00%     79.18% # Number of instructions issued per FU type, per thread (Count)
system.cpu0.statIssuedInstType_0::SimdAdd         8263      0.04%     79.22% # Number of instructions issued per FU type, per thread (Count)
system.cpu0.statIssuedInstType_0::SimdAddAcc            0      0.00%     79.22% # Number of instructions issued per FU type, per thread (Count)
system.cpu0.statIssuedInstType_0::SimdAlu        16764      0.08%     79.30% # Number of instructions issued per FU type, per thread (Count)
system.cpu0.statIssuedInstType_0::SimdCmp            0      0.00%     79.30% # Number of instructions issued per FU type, per thread (Count)
system.cpu0.statIssuedInstType_0::SimdCvt        18438      0.09%     79.38% # Number of instructions issued per FU type, per thread (Count)
system.cpu0.statIssuedInstType_0::SimdMisc         8665      0.04%     79.42% # Number of instructions issued per FU type, per thread (Count)
system.cpu0.statIssuedInstType_0::SimdMult            0      0.00%     79.42% # Number of instructions issued per FU type, per thread (Count)
system.cpu0.statIssuedInstType_0::SimdMultAcc            0      0.00%     79.42% # Number of instructions issued per FU type, per thread (Count)
system.cpu0.statIssuedInstType_0::SimdShift         2452      0.01%     79.44% # Number of instructions issued per FU type, per thread (Count)
system.cpu0.statIssuedInstType_0::SimdShiftAcc            0      0.00%     79.44% # Number of instructions issued per FU type, per thread (Count)
system.cpu0.statIssuedInstType_0::SimdDiv            0      0.00%     79.44% # Number of instructions issued per FU type, per thread (Count)
system.cpu0.statIssuedInstType_0::SimdSqrt            0      0.00%     79.44% # Number of instructions issued per FU type, per thread (Count)
system.cpu0.statIssuedInstType_0::SimdFloatAdd            0      0.00%     79.44% # Number of instructions issued per FU type, per thread (Count)
system.cpu0.statIssuedInstType_0::SimdFloatAlu            0      0.00%     79.44% # Number of instructions issued per FU type, per thread (Count)
system.cpu0.statIssuedInstType_0::SimdFloatCmp            0      0.00%     79.44% # Number of instructions issued per FU type, per thread (Count)
system.cpu0.statIssuedInstType_0::SimdFloatCvt            0      0.00%     79.44% # Number of instructions issued per FU type, per thread (Count)
system.cpu0.statIssuedInstType_0::SimdFloatDiv            0      0.00%     79.44% # Number of instructions issued per FU type, per thread (Count)
system.cpu0.statIssuedInstType_0::SimdFloatMisc            0      0.00%     79.44% # Number of instructions issued per FU type, per thread (Count)
system.cpu0.statIssuedInstType_0::SimdFloatMult            0      0.00%     79.44% # Number of instructions issued per FU type, per thread (Count)
system.cpu0.statIssuedInstType_0::SimdFloatMultAcc            0      0.00%     79.44% # Number of instructions issued per FU type, per thread (Count)
system.cpu0.statIssuedInstType_0::SimdFloatSqrt            0      0.00%     79.44% # Number of instructions issued per FU type, per thread (Count)
system.cpu0.statIssuedInstType_0::SimdReduceAdd            0      0.00%     79.44% # Number of instructions issued per FU type, per thread (Count)
system.cpu0.statIssuedInstType_0::SimdReduceAlu            0      0.00%     79.44% # Number of instructions issued per FU type, per thread (Count)
system.cpu0.statIssuedInstType_0::SimdReduceCmp            0      0.00%     79.44% # Number of instructions issued per FU type, per thread (Count)
system.cpu0.statIssuedInstType_0::SimdFloatReduceAdd            0      0.00%     79.44% # Number of instructions issued per FU type, per thread (Count)
system.cpu0.statIssuedInstType_0::SimdFloatReduceCmp            0      0.00%     79.44% # Number of instructions issued per FU type, per thread (Count)
system.cpu0.statIssuedInstType_0::SimdAes            0      0.00%     79.44% # Number of instructions issued per FU type, per thread (Count)
system.cpu0.statIssuedInstType_0::SimdAesMix            0      0.00%     79.44% # Number of instructions issued per FU type, per thread (Count)
system.cpu0.statIssuedInstType_0::SimdSha1Hash            0      0.00%     79.44% # Number of instructions issued per FU type, per thread (Count)
system.cpu0.statIssuedInstType_0::SimdSha1Hash2            0      0.00%     79.44% # Number of instructions issued per FU type, per thread (Count)
system.cpu0.statIssuedInstType_0::SimdSha256Hash            0      0.00%     79.44% # Number of instructions issued per FU type, per thread (Count)
system.cpu0.statIssuedInstType_0::SimdSha256Hash2            0      0.00%     79.44% # Number of instructions issued per FU type, per thread (Count)
system.cpu0.statIssuedInstType_0::SimdShaSigma2            0      0.00%     79.44% # Number of instructions issued per FU type, per thread (Count)
system.cpu0.statIssuedInstType_0::SimdShaSigma3            0      0.00%     79.44% # Number of instructions issued per FU type, per thread (Count)
system.cpu0.statIssuedInstType_0::SimdPredAlu            0      0.00%     79.44% # Number of instructions issued per FU type, per thread (Count)
system.cpu0.statIssuedInstType_0::MemRead      2730809     12.64%     92.08% # Number of instructions issued per FU type, per thread (Count)
system.cpu0.statIssuedInstType_0::MemWrite      1660509      7.69%     99.77% # Number of instructions issued per FU type, per thread (Count)
system.cpu0.statIssuedInstType_0::FloatMemRead        32964      0.15%     99.92% # Number of instructions issued per FU type, per thread (Count)
system.cpu0.statIssuedInstType_0::FloatMemWrite        17689      0.08%    100.00% # Number of instructions issued per FU type, per thread (Count)
system.cpu0.statIssuedInstType_0::IprAccess            0      0.00%    100.00% # Number of instructions issued per FU type, per thread (Count)
system.cpu0.statIssuedInstType_0::InstPrefetch            0      0.00%    100.00% # Number of instructions issued per FU type, per thread (Count)
system.cpu0.statIssuedInstType_0::total      21599682                       # Number of instructions issued per FU type, per thread (Count)
system.cpu0.issueRate                        1.405373                       # Inst issue rate ((Count/Cycle))
system.cpu0.fuBusy                              73426                       # FU busy when requested (Count)
system.cpu0.fuBusyRate                       0.003399                       # FU busy rate (busy events/executed inst) ((Count/Count))
system.cpu0.intInstQueueReads                57344932                       # Number of integer instruction queue reads (Count)
system.cpu0.intInstQueueWrites               23283073                       # Number of integer instruction queue writes (Count)
system.cpu0.intInstQueueWakeupAccesses       21373324                       # Number of integer instruction queue wakeup accesses (Count)
system.cpu0.fpInstQueueReads                   226553                       # Number of floating instruction queue reads (Count)
system.cpu0.fpInstQueueWrites                  172921                       # Number of floating instruction queue writes (Count)
system.cpu0.fpInstQueueWakeupAccesses          108214                       # Number of floating instruction queue wakeup accesses (Count)
system.cpu0.vecInstQueueReads                       0                       # Number of vector instruction queue reads (Count)
system.cpu0.vecInstQueueWrites                      0                       # Number of vector instruction queue writes (Count)
system.cpu0.vecInstQueueWakeupAccesses              0                       # Number of vector instruction queue wakeup accesses (Count)
system.cpu0.intAluAccesses                   21520534                       # Number of integer alu accesses (Count)
system.cpu0.fpAluAccesses                      114223                       # Number of floating point alu accesses (Count)
system.cpu0.vecAluAccesses                          0                       # Number of vector alu accesses (Count)
system.cpu0.numInsts                         21521252                       # Number of executed instructions (Count)
system.cpu0.numLoadInsts                      2751996                       # Number of load instructions executed (Count)
system.cpu0.numSquashedInsts                    78430                       # Number of squashed instructions skipped in execute (Count)
system.cpu0.numSwp                                  0                       # Number of swp insts executed (Count)
system.cpu0.numNop                                  0                       # Number of nop insts executed (Count)
system.cpu0.numRefs                           4428089                       # Number of memory reference insts executed (Count)
system.cpu0.numBranches                       1768098                       # Number of branches executed (Count)
system.cpu0.numStoreInsts                     1676093                       # Number of stores executed (Count)
system.cpu0.numRate                          1.400270                       # Inst execution rate ((Count/Cycle))
system.cpu0.timesIdled                           2225                       # Number of times that the entire CPU went into an idle state and unscheduled itself (Count)
system.cpu0.idleCycles                        1073528                       # Total number of cycles that the CPU has spent unscheduled due to idling (Cycle)
system.cpu0.committedInsts                    9010375                       # Number of Instructions Simulated (Count)
system.cpu0.committedOps                     20746356                       # Number of Ops (including micro ops) Simulated (Count)
system.cpu0.cpi                              1.705741                       # CPI: Cycles Per Instruction ((Cycle/Count))
system.cpu0.totalCpi                         1.705741                       # CPI: Total CPI of All Threads ((Cycle/Count))
system.cpu0.ipc                              0.586256                       # IPC: Instructions Per Cycle ((Count/Cycle))
system.cpu0.totalIpc                         0.586256                       # IPC: Total IPC of All Threads ((Count/Cycle))
system.cpu0.intRegfileReads                  33916177                       # Number of integer regfile reads (Count)
system.cpu0.intRegfileWrites                 17402465                       # Number of integer regfile writes (Count)
system.cpu0.fpRegfileReads                     147540                       # Number of floating regfile reads (Count)
system.cpu0.fpRegfileWrites                     81773                       # Number of floating regfile writes (Count)
system.cpu0.ccRegfileReads                   14410323                       # number of cc regfile reads (Count)
system.cpu0.ccRegfileWrites                  10196792                       # number of cc regfile writes (Count)
system.cpu0.miscRegfileReads                  5714430                       # number of misc regfile reads (Count)
system.cpu0.miscRegfileWrites                     729                       # number of misc regfile writes (Count)
system.cpu0.MemDepUnit__0.insertedLoads       2813348                       # Number of loads inserted to the mem dependence unit. (Count)
system.cpu0.MemDepUnit__0.insertedStores      1708489                       # Number of stores inserted to the mem dependence unit. (Count)
system.cpu0.MemDepUnit__0.conflictingLoads       404990                       # Number of conflicting loads. (Count)
system.cpu0.MemDepUnit__0.conflictingStores       223344                       # Number of conflicting stores. (Count)
system.cpu0.MemDepUnit__1.insertedLoads             0                       # Number of loads inserted to the mem dependence unit. (Count)
system.cpu0.MemDepUnit__1.insertedStores            0                       # Number of stores inserted to the mem dependence unit. (Count)
system.cpu0.MemDepUnit__1.conflictingLoads            0                       # Number of conflicting loads. (Count)
system.cpu0.MemDepUnit__1.conflictingStores            0                       # Number of conflicting stores. (Count)
system.cpu0.MemDepUnit__2.insertedLoads             0                       # Number of loads inserted to the mem dependence unit. (Count)
system.cpu0.MemDepUnit__2.insertedStores            0                       # Number of stores inserted to the mem dependence unit. (Count)
system.cpu0.MemDepUnit__2.conflictingLoads            0                       # Number of conflicting loads. (Count)
system.cpu0.MemDepUnit__2.conflictingStores            0                       # Number of conflicting stores. (Count)
system.cpu0.MemDepUnit__3.insertedLoads             0                       # Number of loads inserted to the mem dependence unit. (Count)
system.cpu0.MemDepUnit__3.insertedStores            0                       # Number of stores inserted to the mem dependence unit. (Count)
system.cpu0.MemDepUnit__3.conflictingLoads            0                       # Number of conflicting loads. (Count)
system.cpu0.MemDepUnit__3.conflictingStores            0                       # Number of conflicting stores. (Count)
system.cpu0.branchPred.lookups                1946424                       # Number of BP lookups (Count)
system.cpu0.branchPred.condPredicted          1880418                       # Number of conditional branches predicted (Count)
system.cpu0.branchPred.condIncorrect            43486                       # Number of conditional branches incorrect (Count)
system.cpu0.branchPred.BTBLookups             1699514                       # Number of BTB lookups (Count)
system.cpu0.branchPred.BTBUpdates               18487                       # Number of BTB updates (Count)
system.cpu0.branchPred.BTBHits                1695684                       # Number of BTB hits (Count)
system.cpu0.branchPred.BTBHitRatio           0.997746                       # BTB Hit Ratio (Ratio)
system.cpu0.branchPred.RASUsed                  15297                       # Number of times the RAS was used to get a target. (Count)
system.cpu0.branchPred.RASIncorrect                 7                       # Number of incorrect RAS predictions. (Count)
system.cpu0.branchPred.indirectLookups           9484                       # Number of indirect predictor lookups. (Count)
system.cpu0.branchPred.indirectHits              5107                       # Number of indirect target hits. (Count)
system.cpu0.branchPred.indirectMisses            4377                       # Number of indirect misses. (Count)
system.cpu0.branchPred.indirectMispredicted         1099                       # Number of mispredicted indirect branches. (Count)
system.cpu0.commit.commitSquashedInsts        1345891                       # The number of squashed insts skipped by commit (Count)
system.cpu0.commit.commitNonSpecStalls            733                       # The number of times commit has been forced to stall to communicate backwards (Count)
system.cpu0.commit.branchMispredicts            36467                       # The number of times a branch was mispredicted (Count)
system.cpu0.commit.numCommittedDist::samples     14099136                       # Number of insts commited each cycle (Count)
system.cpu0.commit.numCommittedDist::mean     1.471463                       # Number of insts commited each cycle (Count)
system.cpu0.commit.numCommittedDist::stdev     2.361806                       # Number of insts commited each cycle (Count)
system.cpu0.commit.numCommittedDist::underflows            0      0.00%      0.00% # Number of insts commited each cycle (Count)
system.cpu0.commit.numCommittedDist::0        8260443     58.59%     58.59% # Number of insts commited each cycle (Count)
system.cpu0.commit.numCommittedDist::1        1971513     13.98%     72.57% # Number of insts commited each cycle (Count)
system.cpu0.commit.numCommittedDist::2         653049      4.63%     77.20% # Number of insts commited each cycle (Count)
system.cpu0.commit.numCommittedDist::3         476320      3.38%     80.58% # Number of insts commited each cycle (Count)
system.cpu0.commit.numCommittedDist::4         693700      4.92%     85.50% # Number of insts commited each cycle (Count)
system.cpu0.commit.numCommittedDist::5         566029      4.01%     89.52% # Number of insts commited each cycle (Count)
system.cpu0.commit.numCommittedDist::6         651857      4.62%     94.14% # Number of insts commited each cycle (Count)
system.cpu0.commit.numCommittedDist::7          86102      0.61%     94.75% # Number of insts commited each cycle (Count)
system.cpu0.commit.numCommittedDist::8         740123      5.25%    100.00% # Number of insts commited each cycle (Count)
system.cpu0.commit.numCommittedDist::overflows            0      0.00%    100.00% # Number of insts commited each cycle (Count)
system.cpu0.commit.numCommittedDist::min_value            0                       # Number of insts commited each cycle (Count)
system.cpu0.commit.numCommittedDist::max_value            8                       # Number of insts commited each cycle (Count)
system.cpu0.commit.numCommittedDist::total     14099136                       # Number of insts commited each cycle (Count)
system.cpu0.commit.instsCommitted             9010375                       # Number of instructions committed (Count)
system.cpu0.commit.opsCommitted              20746356                       # Number of ops (including micro ops) committed (Count)
system.cpu0.commit.memRefs                    4280115                       # Number of memory references committed (Count)
system.cpu0.commit.loads                      2629547                       # Number of loads committed (Count)
system.cpu0.commit.amos                             0                       # Number of atomic instructions committed (Count)
system.cpu0.commit.membars                          0                       # Number of memory barriers committed (Count)
system.cpu0.commit.branches                   1722348                       # Number of branches committed (Count)
system.cpu0.commit.vectorInstructions               0                       # Number of committed Vector instructions. (Count)
system.cpu0.commit.floating                     79719                       # Number of committed floating point instructions. (Count)
system.cpu0.commit.integer                   19534094                       # Number of committed integer instructions. (Count)
system.cpu0.commit.functionCalls                11622                       # Number of function calls committed. (Count)
system.cpu0.commit.committedInstType_0::No_OpClass        19284      0.09%      0.09% # Class of committed instruction (Count)
system.cpu0.commit.committedInstType_0::IntAlu     16366681     78.89%     78.98% # Class of committed instruction (Count)
system.cpu0.commit.committedInstType_0::IntMult           29      0.00%     78.98% # Class of committed instruction (Count)
system.cpu0.commit.committedInstType_0::IntDiv        35785      0.17%     79.16% # Class of committed instruction (Count)
system.cpu0.commit.committedInstType_0::FloatAdd         3076      0.01%     79.17% # Class of committed instruction (Count)
system.cpu0.commit.committedInstType_0::FloatCmp            0      0.00%     79.17% # Class of committed instruction (Count)
system.cpu0.commit.committedInstType_0::FloatCvt         1296      0.01%     79.18% # Class of committed instruction (Count)
system.cpu0.commit.committedInstType_0::FloatMult            0      0.00%     79.18% # Class of committed instruction (Count)
system.cpu0.commit.committedInstType_0::FloatMultAcc            0      0.00%     79.18% # Class of committed instruction (Count)
system.cpu0.commit.committedInstType_0::FloatDiv            0      0.00%     79.18% # Class of committed instruction (Count)
system.cpu0.commit.committedInstType_0::FloatMisc            0      0.00%     79.18% # Class of committed instruction (Count)
system.cpu0.commit.committedInstType_0::FloatSqrt            0      0.00%     79.18% # Class of committed instruction (Count)
system.cpu0.commit.committedInstType_0::SimdAdd         6674      0.03%     79.21% # Class of committed instruction (Count)
system.cpu0.commit.committedInstType_0::SimdAddAcc            0      0.00%     79.21% # Class of committed instruction (Count)
system.cpu0.commit.committedInstType_0::SimdAlu        11967      0.06%     79.27% # Class of committed instruction (Count)
system.cpu0.commit.committedInstType_0::SimdCmp            0      0.00%     79.27% # Class of committed instruction (Count)
system.cpu0.commit.committedInstType_0::SimdCvt        13044      0.06%     79.33% # Class of committed instruction (Count)
system.cpu0.commit.committedInstType_0::SimdMisc         7084      0.03%     79.36% # Class of committed instruction (Count)
system.cpu0.commit.committedInstType_0::SimdMult            0      0.00%     79.36% # Class of committed instruction (Count)
system.cpu0.commit.committedInstType_0::SimdMultAcc            0      0.00%     79.36% # Class of committed instruction (Count)
system.cpu0.commit.committedInstType_0::SimdShift         1321      0.01%     79.37% # Class of committed instruction (Count)
system.cpu0.commit.committedInstType_0::SimdShiftAcc            0      0.00%     79.37% # Class of committed instruction (Count)
system.cpu0.commit.committedInstType_0::SimdDiv            0      0.00%     79.37% # Class of committed instruction (Count)
system.cpu0.commit.committedInstType_0::SimdSqrt            0      0.00%     79.37% # Class of committed instruction (Count)
system.cpu0.commit.committedInstType_0::SimdFloatAdd            0      0.00%     79.37% # Class of committed instruction (Count)
system.cpu0.commit.committedInstType_0::SimdFloatAlu            0      0.00%     79.37% # Class of committed instruction (Count)
system.cpu0.commit.committedInstType_0::SimdFloatCmp            0      0.00%     79.37% # Class of committed instruction (Count)
system.cpu0.commit.committedInstType_0::SimdFloatCvt            0      0.00%     79.37% # Class of committed instruction (Count)
system.cpu0.commit.committedInstType_0::SimdFloatDiv            0      0.00%     79.37% # Class of committed instruction (Count)
system.cpu0.commit.committedInstType_0::SimdFloatMisc            0      0.00%     79.37% # Class of committed instruction (Count)
system.cpu0.commit.committedInstType_0::SimdFloatMult            0      0.00%     79.37% # Class of committed instruction (Count)
system.cpu0.commit.committedInstType_0::SimdFloatMultAcc            0      0.00%     79.37% # Class of committed instruction (Count)
system.cpu0.commit.committedInstType_0::SimdFloatSqrt            0      0.00%     79.37% # Class of committed instruction (Count)
system.cpu0.commit.committedInstType_0::SimdReduceAdd            0      0.00%     79.37% # Class of committed instruction (Count)
system.cpu0.commit.committedInstType_0::SimdReduceAlu            0      0.00%     79.37% # Class of committed instruction (Count)
system.cpu0.commit.committedInstType_0::SimdReduceCmp            0      0.00%     79.37% # Class of committed instruction (Count)
system.cpu0.commit.committedInstType_0::SimdFloatReduceAdd            0      0.00%     79.37% # Class of committed instruction (Count)
system.cpu0.commit.committedInstType_0::SimdFloatReduceCmp            0      0.00%     79.37% # Class of committed instruction (Count)
system.cpu0.commit.committedInstType_0::SimdAes            0      0.00%     79.37% # Class of committed instruction (Count)
system.cpu0.commit.committedInstType_0::SimdAesMix            0      0.00%     79.37% # Class of committed instruction (Count)
system.cpu0.commit.committedInstType_0::SimdSha1Hash            0      0.00%     79.37% # Class of committed instruction (Count)
system.cpu0.commit.committedInstType_0::SimdSha1Hash2            0      0.00%     79.37% # Class of committed instruction (Count)
system.cpu0.commit.committedInstType_0::SimdSha256Hash            0      0.00%     79.37% # Class of committed instruction (Count)
system.cpu0.commit.committedInstType_0::SimdSha256Hash2            0      0.00%     79.37% # Class of committed instruction (Count)
system.cpu0.commit.committedInstType_0::SimdShaSigma2            0      0.00%     79.37% # Class of committed instruction (Count)
system.cpu0.commit.committedInstType_0::SimdShaSigma3            0      0.00%     79.37% # Class of committed instruction (Count)
system.cpu0.commit.committedInstType_0::SimdPredAlu            0      0.00%     79.37% # Class of committed instruction (Count)
system.cpu0.commit.committedInstType_0::MemRead      2608812     12.57%     91.94% # Class of committed instruction (Count)
system.cpu0.commit.committedInstType_0::MemWrite      1636946      7.89%     99.83% # Class of committed instruction (Count)
system.cpu0.commit.committedInstType_0::FloatMemRead        20735      0.10%     99.93% # Class of committed instruction (Count)
system.cpu0.commit.committedInstType_0::FloatMemWrite        13622      0.07%    100.00% # Class of committed instruction (Count)
system.cpu0.commit.committedInstType_0::IprAccess            0      0.00%    100.00% # Class of committed instruction (Count)
system.cpu0.commit.committedInstType_0::InstPrefetch            0      0.00%    100.00% # Class of committed instruction (Count)
system.cpu0.commit.committedInstType_0::total     20746356                       # Class of committed instruction (Count)
system.cpu0.commit.commitEligibleSamples       740123                       # number cycles where commit BW limit reached (Cycle)
system.cpu0.decode.idleCycles                 1333494                       # Number of cycles decode is idle (Cycle)
system.cpu0.decode.blockedCycles              9848816                       # Number of cycles decode is blocked (Cycle)
system.cpu0.decode.runCycles                  1717406                       # Number of cycles decode is running (Cycle)
system.cpu0.decode.unblockCycles              1358845                       # Number of cycles decode is unblocking (Cycle)
system.cpu0.decode.squashCycles                 37274                       # Number of cycles decode is squashing (Cycle)
system.cpu0.decode.branchResolved             1637113                       # Number of times decode resolved a branch (Count)
system.cpu0.decode.branchMispred                 9162                       # Number of times decode detected a branch misprediction (Count)
system.cpu0.decode.decodedInsts              22568097                       # Number of instructions handled by decode (Count)
system.cpu0.decode.squashedInsts                37488                       # Number of squashed instructions handled by decode (Count)
system.cpu0.fetch.icacheStallCycles           1163031                       # Number of cycles fetch is stalled on an Icache miss (Cycle)
system.cpu0.fetch.insts                      10315205                       # Number of instructions fetch has processed (Count)
system.cpu0.fetch.branches                    1946424                       # Number of branches that fetch encountered (Count)
system.cpu0.fetch.predictedBranches           1716088                       # Number of branches that fetch has predicted taken (Count)
system.cpu0.fetch.cycles                     12858123                       # Number of cycles fetch has run and was not squashing or blocked (Cycle)
system.cpu0.fetch.squashCycles                  92822                       # Number of cycles fetch has spent squashing (Cycle)
system.cpu0.fetch.miscStallCycles               13444                       # Number of cycles fetch has spent waiting on interrupts, or bad addresses, or out of MSHRs (Cycle)
system.cpu0.fetch.pendingTrapStallCycles        13739                       # Number of stall cycles due to pending traps (Cycle)
system.cpu0.fetch.icacheWaitRetryStallCycles       201087                       # Number of stall cycles due to full MSHR (Cycle)
system.cpu0.fetch.cacheLines                   963444                       # Number of cache lines fetched (Count)
system.cpu0.fetch.icacheSquashes                 6877                       # Number of outstanding Icache misses that were squashed (Count)
system.cpu0.fetch.nisnDist::samples          14295835                       # Number of instructions fetched each cycle (Total) (Count)
system.cpu0.fetch.nisnDist::mean             1.630299                       # Number of instructions fetched each cycle (Total) (Count)
system.cpu0.fetch.nisnDist::stdev            3.037370                       # Number of instructions fetched each cycle (Total) (Count)
system.cpu0.fetch.nisnDist::underflows              0      0.00%      0.00% # Number of instructions fetched each cycle (Total) (Count)
system.cpu0.fetch.nisnDist::0                10790317     75.48%     75.48% # Number of instructions fetched each cycle (Total) (Count)
system.cpu0.fetch.nisnDist::1                   84493      0.59%     76.07% # Number of instructions fetched each cycle (Total) (Count)
system.cpu0.fetch.nisnDist::2                  101789      0.71%     76.78% # Number of instructions fetched each cycle (Total) (Count)
system.cpu0.fetch.nisnDist::3                  295902      2.07%     78.85% # Number of instructions fetched each cycle (Total) (Count)
system.cpu0.fetch.nisnDist::4                  216800      1.52%     80.37% # Number of instructions fetched each cycle (Total) (Count)
system.cpu0.fetch.nisnDist::5                  121564      0.85%     81.22% # Number of instructions fetched each cycle (Total) (Count)
system.cpu0.fetch.nisnDist::6                  372362      2.60%     83.82% # Number of instructions fetched each cycle (Total) (Count)
system.cpu0.fetch.nisnDist::7                   79347      0.56%     84.38% # Number of instructions fetched each cycle (Total) (Count)
system.cpu0.fetch.nisnDist::8                 2233261     15.62%    100.00% # Number of instructions fetched each cycle (Total) (Count)
system.cpu0.fetch.nisnDist::overflows               0      0.00%    100.00% # Number of instructions fetched each cycle (Total) (Count)
system.cpu0.fetch.nisnDist::min_value               0                       # Number of instructions fetched each cycle (Total) (Count)
system.cpu0.fetch.nisnDist::max_value               8                       # Number of instructions fetched each cycle (Total) (Count)
system.cpu0.fetch.nisnDist::total            14295835                       # Number of instructions fetched each cycle (Total) (Count)
system.cpu0.fetch.branchRate                 0.126643                       # Number of branch fetches per cycle (Ratio)
system.cpu0.fetch.rate                       0.671154                       # Number of inst fetches per cycle ((Count/Cycle))
system.cpu0.iew.idleCycles                          0                       # Number of cycles IEW is idle (Cycle)
system.cpu0.iew.squashCycles                    37274                       # Number of cycles IEW is squashing (Cycle)
system.cpu0.iew.blockCycles                   4937087                       # Number of cycles IEW is blocking (Cycle)
system.cpu0.iew.unblockCycles                  154326                       # Number of cycles IEW is unblocking (Cycle)
system.cpu0.iew.dispatchedInsts              22101056                       # Number of instructions dispatched to IQ (Count)
system.cpu0.iew.dispSquashedInsts                1639                       # Number of squashed instructions skipped by dispatch (Count)
system.cpu0.iew.dispLoadInsts                 2813348                       # Number of dispatched load instructions (Count)
system.cpu0.iew.dispStoreInsts                1708489                       # Number of dispatched store instructions (Count)
system.cpu0.iew.dispNonSpecInsts                  749                       # Number of dispatched non-speculative instructions (Count)
system.cpu0.iew.iqFullEvents                     7315                       # Number of times the IQ has become full, causing a stall (Count)
system.cpu0.iew.lsqFullEvents                  141874                       # Number of times the LSQ has become full, causing a stall (Count)
system.cpu0.iew.memOrderViolationEvents           260                       # Number of memory order violations (Count)
system.cpu0.iew.predictedTakenIncorrect         26397                       # Number of branches that were predicted taken incorrectly (Count)
system.cpu0.iew.predictedNotTakenIncorrect        14090                       # Number of branches that were predicted not taken incorrectly (Count)
system.cpu0.iew.branchMispredicts               40487                       # Number of branch mispredicts detected at execute (Count)
system.cpu0.iew.instsToCommit                21496763                       # Cumulative count of insts sent to commit (Count)
system.cpu0.iew.writebackCount               21481538                       # Cumulative count of insts written-back (Count)
system.cpu0.iew.producerInst                 16239816                       # Number of instructions producing a value (Count)
system.cpu0.iew.consumerInst                 30050037                       # Number of instructions consuming a value (Count)
system.cpu0.iew.wbRate                       1.397686                       # Insts written-back per cycle ((Count/Cycle))
system.cpu0.iew.wbFanout                     0.540426                       # Average fanout of values written-back ((Count/Count))
system.cpu0.interrupts.clk_domain.clock          8000                       # Clock period in ticks (Tick)
system.cpu0.lsq0.forwLoads                     478762                       # Number of loads that had data forwarded from stores (Count)
system.cpu0.lsq0.squashedLoads                 183799                       # Number of loads squashed (Count)
system.cpu0.lsq0.ignoredResponses                  97                       # Number of memory responses ignored because the instruction is squashed (Count)
system.cpu0.lsq0.memOrderViolation                260                       # Number of memory ordering violations (Count)
system.cpu0.lsq0.squashedStores                 57918                       # Number of stores squashed (Count)
system.cpu0.lsq0.rescheduledLoads                2276                       # Number of loads that were rescheduled (Count)
system.cpu0.lsq0.blockedByCache                  2115                       # Number of times an access to memory failed due to the cache being blocked (Count)
system.cpu0.lsq0.loadToUse::samples           2629468                       # Distribution of cycle latency between the first time a load is issued and its completion (Unspecified)
system.cpu0.lsq0.loadToUse::mean            14.507333                       # Distribution of cycle latency between the first time a load is issued and its completion (Unspecified)
system.cpu0.lsq0.loadToUse::stdev           95.971392                       # Distribution of cycle latency between the first time a load is issued and its completion (Unspecified)
system.cpu0.lsq0.loadToUse::0-9               2583973     98.27%     98.27% # Distribution of cycle latency between the first time a load is issued and its completion (Unspecified)
system.cpu0.lsq0.loadToUse::10-19                  74      0.00%     98.27% # Distribution of cycle latency between the first time a load is issued and its completion (Unspecified)
system.cpu0.lsq0.loadToUse::20-29                  60      0.00%     98.27% # Distribution of cycle latency between the first time a load is issued and its completion (Unspecified)
system.cpu0.lsq0.loadToUse::30-39                  97      0.00%     98.28% # Distribution of cycle latency between the first time a load is issued and its completion (Unspecified)
system.cpu0.lsq0.loadToUse::40-49                  86      0.00%     98.28% # Distribution of cycle latency between the first time a load is issued and its completion (Unspecified)
system.cpu0.lsq0.loadToUse::50-59                 140      0.01%     98.29% # Distribution of cycle latency between the first time a load is issued and its completion (Unspecified)
system.cpu0.lsq0.loadToUse::60-69                 107      0.00%     98.29% # Distribution of cycle latency between the first time a load is issued and its completion (Unspecified)
system.cpu0.lsq0.loadToUse::70-79                 100      0.00%     98.30% # Distribution of cycle latency between the first time a load is issued and its completion (Unspecified)
system.cpu0.lsq0.loadToUse::80-89                  93      0.00%     98.30% # Distribution of cycle latency between the first time a load is issued and its completion (Unspecified)
system.cpu0.lsq0.loadToUse::90-99                  77      0.00%     98.30% # Distribution of cycle latency between the first time a load is issued and its completion (Unspecified)
system.cpu0.lsq0.loadToUse::100-109                76      0.00%     98.30% # Distribution of cycle latency between the first time a load is issued and its completion (Unspecified)
system.cpu0.lsq0.loadToUse::110-119                64      0.00%     98.31% # Distribution of cycle latency between the first time a load is issued and its completion (Unspecified)
system.cpu0.lsq0.loadToUse::120-129                60      0.00%     98.31% # Distribution of cycle latency between the first time a load is issued and its completion (Unspecified)
system.cpu0.lsq0.loadToUse::130-139                49      0.00%     98.31% # Distribution of cycle latency between the first time a load is issued and its completion (Unspecified)
system.cpu0.lsq0.loadToUse::140-149                78      0.00%     98.31% # Distribution of cycle latency between the first time a load is issued and its completion (Unspecified)
system.cpu0.lsq0.loadToUse::150-159                57      0.00%     98.32% # Distribution of cycle latency between the first time a load is issued and its completion (Unspecified)
system.cpu0.lsq0.loadToUse::160-169                59      0.00%     98.32% # Distribution of cycle latency between the first time a load is issued and its completion (Unspecified)
system.cpu0.lsq0.loadToUse::170-179               152      0.01%     98.32% # Distribution of cycle latency between the first time a load is issued and its completion (Unspecified)
system.cpu0.lsq0.loadToUse::180-189               566      0.02%     98.35% # Distribution of cycle latency between the first time a load is issued and its completion (Unspecified)
system.cpu0.lsq0.loadToUse::190-199                43      0.00%     98.35% # Distribution of cycle latency between the first time a load is issued and its completion (Unspecified)
system.cpu0.lsq0.loadToUse::200-209                42      0.00%     98.35% # Distribution of cycle latency between the first time a load is issued and its completion (Unspecified)
system.cpu0.lsq0.loadToUse::210-219                59      0.00%     98.35% # Distribution of cycle latency between the first time a load is issued and its completion (Unspecified)
system.cpu0.lsq0.loadToUse::220-229               117      0.00%     98.36% # Distribution of cycle latency between the first time a load is issued and its completion (Unspecified)
system.cpu0.lsq0.loadToUse::230-239               178      0.01%     98.36% # Distribution of cycle latency between the first time a load is issued and its completion (Unspecified)
system.cpu0.lsq0.loadToUse::240-249              1043      0.04%     98.40% # Distribution of cycle latency between the first time a load is issued and its completion (Unspecified)
system.cpu0.lsq0.loadToUse::250-259                47      0.00%     98.40% # Distribution of cycle latency between the first time a load is issued and its completion (Unspecified)
system.cpu0.lsq0.loadToUse::260-269                64      0.00%     98.41% # Distribution of cycle latency between the first time a load is issued and its completion (Unspecified)
system.cpu0.lsq0.loadToUse::270-279                81      0.00%     98.41% # Distribution of cycle latency between the first time a load is issued and its completion (Unspecified)
system.cpu0.lsq0.loadToUse::280-289               178      0.01%     98.42% # Distribution of cycle latency between the first time a load is issued and its completion (Unspecified)
system.cpu0.lsq0.loadToUse::290-299               254      0.01%     98.43% # Distribution of cycle latency between the first time a load is issued and its completion (Unspecified)
system.cpu0.lsq0.loadToUse::overflows           41394      1.57%    100.00% # Distribution of cycle latency between the first time a load is issued and its completion (Unspecified)
system.cpu0.lsq0.loadToUse::min_value               2                       # Distribution of cycle latency between the first time a load is issued and its completion (Unspecified)
system.cpu0.lsq0.loadToUse::max_value            2582                       # Distribution of cycle latency between the first time a load is issued and its completion (Unspecified)
system.cpu0.lsq0.loadToUse::total             2629468                       # Distribution of cycle latency between the first time a load is issued and its completion (Unspecified)
system.cpu0.mmu.dtb.rdAccesses                2746177                       # TLB accesses on read requests (Count)
system.cpu0.mmu.dtb.wrAccesses                1676119                       # TLB accesses on write requests (Count)
system.cpu0.mmu.dtb.rdMisses                     3169                       # TLB misses on read requests (Count)
system.cpu0.mmu.dtb.wrMisses                      427                       # TLB misses on write requests (Count)
system.cpu0.mmu.dtb.walker.power_state.pwrStateResidencyTicks::UNDEFINED   7684681000                       # Cumulative time (in ticks) in various power states (Tick)
system.cpu0.mmu.itb.rdAccesses                      0                       # TLB accesses on read requests (Count)
system.cpu0.mmu.itb.wrAccesses                 965631                       # TLB accesses on write requests (Count)
system.cpu0.mmu.itb.rdMisses                        0                       # TLB misses on read requests (Count)
system.cpu0.mmu.itb.wrMisses                     2737                       # TLB misses on write requests (Count)
system.cpu0.mmu.itb.walker.power_state.pwrStateResidencyTicks::UNDEFINED   7684681000                       # Cumulative time (in ticks) in various power states (Tick)
system.cpu0.power_state.pwrStateResidencyTicks::ON   7684681000                       # Cumulative time (in ticks) in various power states (Tick)
system.cpu0.rename.squashCycles                 37274                       # Number of cycles rename is squashing (Cycle)
system.cpu0.rename.idleCycles                 1782761                       # Number of cycles rename is idle (Cycle)
system.cpu0.rename.blockCycles                6573937                       # Number of cycles rename is blocking (Cycle)
system.cpu0.rename.serializeStallCycles         19733                       # count of cycles rename stalled for serializing inst (Cycle)
system.cpu0.rename.runCycles                  2610864                       # Number of cycles rename is running (Cycle)
system.cpu0.rename.unblockCycles              3271266                       # Number of cycles rename is unblocking (Cycle)
system.cpu0.rename.renamedInsts              22394297                       # Number of instructions processed by rename (Count)
system.cpu0.rename.ROBFullEvents               104895                       # Number of times rename has blocked due to ROB full (Count)
system.cpu0.rename.IQFullEvents               1378558                       # Number of times rename has blocked due to IQ full (Count)
system.cpu0.rename.LQFullEvents                148489                       # Number of times rename has blocked due to LQ full (Count)
system.cpu0.rename.SQFullEvents               1581018                       # Number of times rename has blocked due to SQ full (Count)
system.cpu0.rename.fullRegistersEvents           2815                       # Number of times there has been no free registers (Count)
system.cpu0.rename.renamedOperands           48783080                       # Number of destination operands rename has renamed (Count)
system.cpu0.rename.lookups                   88437278                       # Number of register rename lookups that rename has made (Count)
system.cpu0.rename.intLookups                35583102                       # Number of integer rename lookups (Count)
system.cpu0.rename.fpLookups                   186176                       # Number of floating rename lookups (Count)
system.cpu0.rename.committedMaps             45278083                       # Number of HB maps that are committed (Count)
system.cpu0.rename.undoneMaps                 3504952                       # Number of HB maps that are undone due to squashing (Count)
system.cpu0.rename.serializing                    757                       # count of serializing insts renamed (Count)
system.cpu0.rename.tempSerializing                742                       # count of temporary serializing insts renamed (Count)
system.cpu0.rename.skidInsts                  6176266                       # count of insts added to the skid buffer (Count)
system.cpu0.rob.reads                        35443707                       # The number of ROB reads (Count)
system.cpu0.rob.writes                       44381471                       # The number of ROB writes (Count)
system.cpu0.thread_0.numInsts                 9010375                       # Number of Instructions committed (Count)
system.cpu0.thread_0.numOps                  20746356                       # Number of Ops committed (Count)
system.cpu0.thread_0.numMemRefs                     0                       # Number of Memory References (Count)
system.cpu0.workload.numSyscalls                   62                       # Number of system calls (Count)
system.cpu1.numCycles                        15369363                       # Number of cpu cycles simulated (Cycle)
system.cpu1.numWorkItemsStarted                     0                       # Number of work items this cpu started (Count)
system.cpu1.numWorkItemsCompleted                   0                       # Number of work items this cpu completed (Count)
system.cpu1.instsAdded                       23687086                       # Number of instructions added to the IQ (excludes non-spec) (Count)
system.cpu1.nonSpecInstsAdded                     868                       # Number of non-speculative instructions added to the IQ (Count)
system.cpu1.instsIssued                      23172460                       # Number of instructions issued (Count)
system.cpu1.squashedInstsIssued                  2923                       # Number of squashed instructions issued (Count)
system.cpu1.squashedInstsExamined             1385070                       # Number of squashed instructions iterated over during squash; mainly for profiling (Count)
system.cpu1.squashedOperandsExamined          3033979                       # Number of squashed operands that are examined and possibly removed from graph (Count)
system.cpu1.squashedNonSpecRemoved                135                       # Number of squashed non-spec instructions that were removed (Count)
system.cpu1.numIssuedDist::samples           14399643                       # Number of insts issued each cycle (Count)
system.cpu1.numIssuedDist::mean              1.609239                       # Number of insts issued each cycle (Count)
system.cpu1.numIssuedDist::stdev             2.003999                       # Number of insts issued each cycle (Count)
system.cpu1.numIssuedDist::underflows               0      0.00%      0.00% # Number of insts issued each cycle (Count)
system.cpu1.numIssuedDist::0                  7374862     51.22%     51.22% # Number of insts issued each cycle (Count)
system.cpu1.numIssuedDist::1                  1181941      8.21%     59.42% # Number of insts issued each cycle (Count)
system.cpu1.numIssuedDist::2                  1147144      7.97%     67.39% # Number of insts issued each cycle (Count)
system.cpu1.numIssuedDist::3                  1720355     11.95%     79.34% # Number of insts issued each cycle (Count)
system.cpu1.numIssuedDist::4                  1274597      8.85%     88.19% # Number of insts issued each cycle (Count)
system.cpu1.numIssuedDist::5                  1046124      7.26%     95.45% # Number of insts issued each cycle (Count)
system.cpu1.numIssuedDist::6                   442562      3.07%     98.53% # Number of insts issued each cycle (Count)
system.cpu1.numIssuedDist::7                   145678      1.01%     99.54% # Number of insts issued each cycle (Count)
system.cpu1.numIssuedDist::8                    66380      0.46%    100.00% # Number of insts issued each cycle (Count)
system.cpu1.numIssuedDist::overflows                0      0.00%    100.00% # Number of insts issued each cycle (Count)
system.cpu1.numIssuedDist::min_value                0                       # Number of insts issued each cycle (Count)
system.cpu1.numIssuedDist::max_value                8                       # Number of insts issued each cycle (Count)
system.cpu1.numIssuedDist::total             14399643                       # Number of insts issued each cycle (Count)
system.cpu1.statFuBusy::No_OpClass                  0      0.00%      0.00% # attempts to use FU when none available (Count)
system.cpu1.statFuBusy::IntAlu                  49479     66.45%     66.45% # attempts to use FU when none available (Count)
system.cpu1.statFuBusy::IntMult                     0      0.00%     66.45% # attempts to use FU when none available (Count)
system.cpu1.statFuBusy::IntDiv                      0      0.00%     66.45% # attempts to use FU when none available (Count)
system.cpu1.statFuBusy::FloatAdd                    0      0.00%     66.45% # attempts to use FU when none available (Count)
system.cpu1.statFuBusy::FloatCmp                    0      0.00%     66.45% # attempts to use FU when none available (Count)
system.cpu1.statFuBusy::FloatCvt                    0      0.00%     66.45% # attempts to use FU when none available (Count)
system.cpu1.statFuBusy::FloatMult                   0      0.00%     66.45% # attempts to use FU when none available (Count)
system.cpu1.statFuBusy::FloatMultAcc                0      0.00%     66.45% # attempts to use FU when none available (Count)
system.cpu1.statFuBusy::FloatDiv                    0      0.00%     66.45% # attempts to use FU when none available (Count)
system.cpu1.statFuBusy::FloatMisc                   0      0.00%     66.45% # attempts to use FU when none available (Count)
system.cpu1.statFuBusy::FloatSqrt                   0      0.00%     66.45% # attempts to use FU when none available (Count)
system.cpu1.statFuBusy::SimdAdd                     0      0.00%     66.45% # attempts to use FU when none available (Count)
system.cpu1.statFuBusy::SimdAddAcc                  0      0.00%     66.45% # attempts to use FU when none available (Count)
system.cpu1.statFuBusy::SimdAlu                   120      0.16%     66.61% # attempts to use FU when none available (Count)
system.cpu1.statFuBusy::SimdCmp                     0      0.00%     66.61% # attempts to use FU when none available (Count)
system.cpu1.statFuBusy::SimdCvt                   133      0.18%     66.79% # attempts to use FU when none available (Count)
system.cpu1.statFuBusy::SimdMisc                    0      0.00%     66.79% # attempts to use FU when none available (Count)
system.cpu1.statFuBusy::SimdMult                    0      0.00%     66.79% # attempts to use FU when none available (Count)
system.cpu1.statFuBusy::SimdMultAcc                 0      0.00%     66.79% # attempts to use FU when none available (Count)
system.cpu1.statFuBusy::SimdShift                 140      0.19%     66.98% # attempts to use FU when none available (Count)
system.cpu1.statFuBusy::SimdShiftAcc                0      0.00%     66.98% # attempts to use FU when none available (Count)
system.cpu1.statFuBusy::SimdDiv                     0      0.00%     66.98% # attempts to use FU when none available (Count)
system.cpu1.statFuBusy::SimdSqrt                    0      0.00%     66.98% # attempts to use FU when none available (Count)
system.cpu1.statFuBusy::SimdFloatAdd                0      0.00%     66.98% # attempts to use FU when none available (Count)
system.cpu1.statFuBusy::SimdFloatAlu                0      0.00%     66.98% # attempts to use FU when none available (Count)
system.cpu1.statFuBusy::SimdFloatCmp                0      0.00%     66.98% # attempts to use FU when none available (Count)
system.cpu1.statFuBusy::SimdFloatCvt                0      0.00%     66.98% # attempts to use FU when none available (Count)
system.cpu1.statFuBusy::SimdFloatDiv                0      0.00%     66.98% # attempts to use FU when none available (Count)
system.cpu1.statFuBusy::SimdFloatMisc               0      0.00%     66.98% # attempts to use FU when none available (Count)
system.cpu1.statFuBusy::SimdFloatMult               0      0.00%     66.98% # attempts to use FU when none available (Count)
system.cpu1.statFuBusy::SimdFloatMultAcc            0      0.00%     66.98% # attempts to use FU when none available (Count)
system.cpu1.statFuBusy::SimdFloatSqrt               0      0.00%     66.98% # attempts to use FU when none available (Count)
system.cpu1.statFuBusy::SimdReduceAdd               0      0.00%     66.98% # attempts to use FU when none available (Count)
system.cpu1.statFuBusy::SimdReduceAlu               0      0.00%     66.98% # attempts to use FU when none available (Count)
system.cpu1.statFuBusy::SimdReduceCmp               0      0.00%     66.98% # attempts to use FU when none available (Count)
system.cpu1.statFuBusy::SimdFloatReduceAdd            0      0.00%     66.98% # attempts to use FU when none available (Count)
system.cpu1.statFuBusy::SimdFloatReduceCmp            0      0.00%     66.98% # attempts to use FU when none available (Count)
system.cpu1.statFuBusy::SimdAes                     0      0.00%     66.98% # attempts to use FU when none available (Count)
system.cpu1.statFuBusy::SimdAesMix                  0      0.00%     66.98% # attempts to use FU when none available (Count)
system.cpu1.statFuBusy::SimdSha1Hash                0      0.00%     66.98% # attempts to use FU when none available (Count)
system.cpu1.statFuBusy::SimdSha1Hash2               0      0.00%     66.98% # attempts to use FU when none available (Count)
system.cpu1.statFuBusy::SimdSha256Hash              0      0.00%     66.98% # attempts to use FU when none available (Count)
system.cpu1.statFuBusy::SimdSha256Hash2             0      0.00%     66.98% # attempts to use FU when none available (Count)
system.cpu1.statFuBusy::SimdShaSigma2               0      0.00%     66.98% # attempts to use FU when none available (Count)
system.cpu1.statFuBusy::SimdShaSigma3               0      0.00%     66.98% # attempts to use FU when none available (Count)
system.cpu1.statFuBusy::SimdPredAlu                 0      0.00%     66.98% # attempts to use FU when none available (Count)
system.cpu1.statFuBusy::MemRead                 12832     17.23%     84.21% # attempts to use FU when none available (Count)
system.cpu1.statFuBusy::MemWrite                 9936     13.34%     97.55% # attempts to use FU when none available (Count)
system.cpu1.statFuBusy::FloatMemRead             1365      1.83%     99.39% # attempts to use FU when none available (Count)
system.cpu1.statFuBusy::FloatMemWrite             456      0.61%    100.00% # attempts to use FU when none available (Count)
system.cpu1.statFuBusy::IprAccess                   0      0.00%    100.00% # attempts to use FU when none available (Count)
system.cpu1.statFuBusy::InstPrefetch                0      0.00%    100.00% # attempts to use FU when none available (Count)
system.cpu1.statIssuedInstType_0::No_OpClass        40095      0.17%      0.17% # Number of instructions issued per FU type, per thread (Count)
system.cpu1.statIssuedInstType_0::IntAlu     18261497     78.81%     78.98% # Number of instructions issued per FU type, per thread (Count)
system.cpu1.statIssuedInstType_0::IntMult           38      0.00%     78.98% # Number of instructions issued per FU type, per thread (Count)
system.cpu1.statIssuedInstType_0::IntDiv        38130      0.16%     79.14% # Number of instructions issued per FU type, per thread (Count)
system.cpu1.statIssuedInstType_0::FloatAdd         4214      0.02%     79.16% # Number of instructions issued per FU type, per thread (Count)
system.cpu1.statIssuedInstType_0::FloatCmp            0      0.00%     79.16% # Number of instructions issued per FU type, per thread (Count)
system.cpu1.statIssuedInstType_0::FloatCvt         1412      0.01%     79.17% # Number of instructions issued per FU type, per thread (Count)
system.cpu1.statIssuedInstType_0::FloatMult            0      0.00%     79.17% # Number of instructions issued per FU type, per thread (Count)
system.cpu1.statIssuedInstType_0::FloatMultAcc            0      0.00%     79.17% # Number of instructions issued per FU type, per thread (Count)
system.cpu1.statIssuedInstType_0::FloatDiv            0      0.00%     79.17% # Number of instructions issued per FU type, per thread (Count)
system.cpu1.statIssuedInstType_0::FloatMisc            0      0.00%     79.17% # Number of instructions issued per FU type, per thread (Count)
system.cpu1.statIssuedInstType_0::FloatSqrt            0      0.00%     79.17% # Number of instructions issued per FU type, per thread (Count)
system.cpu1.statIssuedInstType_0::SimdAdd         8248      0.04%     79.20% # Number of instructions issued per FU type, per thread (Count)
system.cpu1.statIssuedInstType_0::SimdAddAcc            0      0.00%     79.20% # Number of instructions issued per FU type, per thread (Count)
system.cpu1.statIssuedInstType_0::SimdAlu        16774      0.07%     79.28% # Number of instructions issued per FU type, per thread (Count)
system.cpu1.statIssuedInstType_0::SimdCmp            0      0.00%     79.28% # Number of instructions issued per FU type, per thread (Count)
system.cpu1.statIssuedInstType_0::SimdCvt        18389      0.08%     79.36% # Number of instructions issued per FU type, per thread (Count)
system.cpu1.statIssuedInstType_0::SimdMisc         8650      0.04%     79.39% # Number of instructions issued per FU type, per thread (Count)
system.cpu1.statIssuedInstType_0::SimdMult            0      0.00%     79.39% # Number of instructions issued per FU type, per thread (Count)
system.cpu1.statIssuedInstType_0::SimdMultAcc            0      0.00%     79.39% # Number of instructions issued per FU type, per thread (Count)
system.cpu1.statIssuedInstType_0::SimdShift         2481      0.01%     79.40% # Number of instructions issued per FU type, per thread (Count)
system.cpu1.statIssuedInstType_0::SimdShiftAcc            0      0.00%     79.40% # Number of instructions issued per FU type, per thread (Count)
system.cpu1.statIssuedInstType_0::SimdDiv            0      0.00%     79.40% # Number of instructions issued per FU type, per thread (Count)
system.cpu1.statIssuedInstType_0::SimdSqrt            0      0.00%     79.40% # Number of instructions issued per FU type, per thread (Count)
system.cpu1.statIssuedInstType_0::SimdFloatAdd            0      0.00%     79.40% # Number of instructions issued per FU type, per thread (Count)
system.cpu1.statIssuedInstType_0::SimdFloatAlu            0      0.00%     79.40% # Number of instructions issued per FU type, per thread (Count)
system.cpu1.statIssuedInstType_0::SimdFloatCmp            0      0.00%     79.40% # Number of instructions issued per FU type, per thread (Count)
system.cpu1.statIssuedInstType_0::SimdFloatCvt            0      0.00%     79.40% # Number of instructions issued per FU type, per thread (Count)
system.cpu1.statIssuedInstType_0::SimdFloatDiv            0      0.00%     79.40% # Number of instructions issued per FU type, per thread (Count)
system.cpu1.statIssuedInstType_0::SimdFloatMisc            0      0.00%     79.40% # Number of instructions issued per FU type, per thread (Count)
system.cpu1.statIssuedInstType_0::SimdFloatMult            0      0.00%     79.40% # Number of instructions issued per FU type, per thread (Count)
system.cpu1.statIssuedInstType_0::SimdFloatMultAcc            0      0.00%     79.40% # Number of instructions issued per FU type, per thread (Count)
system.cpu1.statIssuedInstType_0::SimdFloatSqrt            0      0.00%     79.40% # Number of instructions issued per FU type, per thread (Count)
system.cpu1.statIssuedInstType_0::SimdReduceAdd            0      0.00%     79.40% # Number of instructions issued per FU type, per thread (Count)
system.cpu1.statIssuedInstType_0::SimdReduceAlu            0      0.00%     79.40% # Number of instructions issued per FU type, per thread (Count)
system.cpu1.statIssuedInstType_0::SimdReduceCmp            0      0.00%     79.40% # Number of instructions issued per FU type, per thread (Count)
system.cpu1.statIssuedInstType_0::SimdFloatReduceAdd            0      0.00%     79.40% # Number of instructions issued per FU type, per thread (Count)
system.cpu1.statIssuedInstType_0::SimdFloatReduceCmp            0      0.00%     79.40% # Number of instructions issued per FU type, per thread (Count)
system.cpu1.statIssuedInstType_0::SimdAes            0      0.00%     79.40% # Number of instructions issued per FU type, per thread (Count)
system.cpu1.statIssuedInstType_0::SimdAesMix            0      0.00%     79.40% # Number of instructions issued per FU type, per thread (Count)
system.cpu1.statIssuedInstType_0::SimdSha1Hash            0      0.00%     79.40% # Number of instructions issued per FU type, per thread (Count)
system.cpu1.statIssuedInstType_0::SimdSha1Hash2            0      0.00%     79.40% # Number of instructions issued per FU type, per thread (Count)
system.cpu1.statIssuedInstType_0::SimdSha256Hash            0      0.00%     79.40% # Number of instructions issued per FU type, per thread (Count)
system.cpu1.statIssuedInstType_0::SimdSha256Hash2            0      0.00%     79.40% # Number of instructions issued per FU type, per thread (Count)
system.cpu1.statIssuedInstType_0::SimdShaSigma2            0      0.00%     79.40% # Number of instructions issued per FU type, per thread (Count)
system.cpu1.statIssuedInstType_0::SimdShaSigma3            0      0.00%     79.40% # Number of instructions issued per FU type, per thread (Count)
system.cpu1.statIssuedInstType_0::SimdPredAlu            0      0.00%     79.40% # Number of instructions issued per FU type, per thread (Count)
system.cpu1.statIssuedInstType_0::MemRead      2926207     12.63%     92.03% # Number of instructions issued per FU type, per thread (Count)
system.cpu1.statIssuedInstType_0::MemWrite      1795669      7.75%     99.78% # Number of instructions issued per FU type, per thread (Count)
system.cpu1.statIssuedInstType_0::FloatMemRead        32955      0.14%     99.92% # Number of instructions issued per FU type, per thread (Count)
system.cpu1.statIssuedInstType_0::FloatMemWrite        17701      0.08%    100.00% # Number of instructions issued per FU type, per thread (Count)
system.cpu1.statIssuedInstType_0::IprAccess            0      0.00%    100.00% # Number of instructions issued per FU type, per thread (Count)
system.cpu1.statIssuedInstType_0::InstPrefetch            0      0.00%    100.00% # Number of instructions issued per FU type, per thread (Count)
system.cpu1.statIssuedInstType_0::total      23172460                       # Number of instructions issued per FU type, per thread (Count)
system.cpu1.issueRate                        1.507705                       # Inst issue rate ((Count/Cycle))
system.cpu1.fuBusy                              74461                       # FU busy when requested (Count)
system.cpu1.fuBusyRate                       0.003213                       # FU busy rate (busy events/executed inst) ((Count/Count))
system.cpu1.intInstQueueReads                60595485                       # Number of integer instruction queue reads (Count)
system.cpu1.intInstQueueWrites               24900284                       # Number of integer instruction queue writes (Count)
system.cpu1.intInstQueueWakeupAccesses       22940835                       # Number of integer instruction queue wakeup accesses (Count)
system.cpu1.fpInstQueueReads                   226459                       # Number of floating instruction queue reads (Count)
system.cpu1.fpInstQueueWrites                  173011                       # Number of floating instruction queue writes (Count)
system.cpu1.fpInstQueueWakeupAccesses          108163                       # Number of floating instruction queue wakeup accesses (Count)
system.cpu1.vecInstQueueReads                       0                       # Number of vector instruction queue reads (Count)
system.cpu1.vecInstQueueWrites                      0                       # Number of vector instruction queue writes (Count)
system.cpu1.vecInstQueueWakeupAccesses              0                       # Number of vector instruction queue wakeup accesses (Count)
system.cpu1.intAluAccesses                   23092642                       # Number of integer alu accesses (Count)
system.cpu1.fpAluAccesses                      114184                       # Number of floating point alu accesses (Count)
system.cpu1.vecAluAccesses                          0                       # Number of vector alu accesses (Count)
system.cpu1.numInsts                         23089468                       # Number of executed instructions (Count)
system.cpu1.numLoadInsts                      2946981                       # Number of load instructions executed (Count)
system.cpu1.numSquashedInsts                    82989                       # Number of squashed instructions skipped in execute (Count)
system.cpu1.numSwp                                  0                       # Number of swp insts executed (Count)
system.cpu1.numNop                                  0                       # Number of nop insts executed (Count)
system.cpu1.numRefs                           4758244                       # Number of memory reference insts executed (Count)
system.cpu1.numBranches                       1894179                       # Number of branches executed (Count)
[...]
system.ruby.network.ext_out_link_utilization      4184155                       (Unspecified)
system.ruby.network.flit_network_latency | 79317414000                       |207841871500                       | 19528981500                       (Unspecified)
system.ruby.network.flit_queueing_latency |  2124098000                       |  2163035000                       |   148052500                       (Unspecified)
system.ruby.network.flits_injected       |      991649     23.70%     23.70% |     2896401     69.22%     92.92% |      296105      7.08%    100.00% (Unspecified)
system.ruby.network.flits_injected::total      4184155                       (Unspecified)
system.ruby.network.flits_received       |      991649     23.70%     23.70% |     2896401     69.22%     92.92% |      296105      7.08%    100.00% (Unspecified)
system.ruby.network.flits_received::total      4184155                       (Unspecified)
system.ruby.network.int_link_utilization     10344909                       (Unspecified)
system.ruby.network.packet_network_latency | 59099573000                       | 68768715000                       | 19528981500                       (Unspecified)
system.ruby.network.packet_queueing_latency |  1741824000                       |   563723000                       |   148052500                       (Unspecified)
system.ruby.network.packets_injected     |      809637     42.27%     42.27% |      809637     42.27%     84.54% |      296105     15.46%    100.00% (Unspecified)
system.ruby.network.packets_injected::total      1915379                       (Unspecified)
system.ruby.network.packets_received     |      809637     42.27%     42.27% |      809637     42.27%     84.54% |      296105     15.46%    100.00% (Unspecified)
system.ruby.network.packets_received::total      1915379                       (Unspecified)
system.ruby.network.routers00.Var_1                 0                       (Unspecified)
system.ruby.network.routers00.Var_2                 0                       (Unspecified)
system.ruby.network.routers00.Var_3                 0                       (Unspecified)
system.ruby.network.routers00.all_counts            0                       (Unspecified)
system.ruby.network.routers00.buffer_reads       661191                       (Unspecified)
system.ruby.network.routers00.buffer_writes       661191                       (Unspecified)
system.ruby.network.routers00.crossbar_activity       661191                       (Unspecified)
system.ruby.network.routers00.detour_counts            0                       (Unspecified)
system.ruby.network.routers00.regular_var            0                       (Unspecified)
system.ruby.network.routers00.risk_counts            0                       (Unspecified)
system.ruby.network.routers00.sw_input_arbiter_activity       665939                       (Unspecified)
system.ruby.network.routers00.sw_output_arbiter_activity       661191                       (Unspecified)
system.ruby.network.routers01.Var_1                 0                       (Unspecified)
system.ruby.network.routers01.Var_2                 0                       (Unspecified)
system.ruby.network.routers01.Var_3                 0                       (Unspecified)
system.ruby.network.routers01.all_counts            0                       (Unspecified)
system.ruby.network.routers01.buffer_reads       922500                       (Unspecified)
system.ruby.network.routers01.buffer_writes       922500                       (Unspecified)
system.ruby.network.routers01.crossbar_activity       922500                       (Unspecified)
system.ruby.network.routers01.detour_counts            0                       (Unspecified)
system.ruby.network.routers01.regular_var            0                       (Unspecified)
system.ruby.network.routers01.risk_counts            0                       (Unspecified)
system.ruby.network.routers01.sw_input_arbiter_activity       932834                       (Unspecified)
system.ruby.network.routers01.sw_output_arbiter_activity       922500                       (Unspecified)
system.ruby.network.routers02.Var_1                 0                       (Unspecified)
system.ruby.network.routers02.Var_2                 0                       (Unspecified)
system.ruby.network.routers02.Var_3                 0                       (Unspecified)
system.ruby.network.routers02.all_counts            0                       (Unspecified)
system.ruby.network.routers02.buffer_reads       926630                       (Unspecified)
system.ruby.network.routers02.buffer_writes       926630                       (Unspecified)
system.ruby.network.routers02.crossbar_activity       926630                       (Unspecified)
system.ruby.network.routers02.detour_counts            0                       (Unspecified)
system.ruby.network.routers02.regular_var            0                       (Unspecified)
system.ruby.network.routers02.risk_counts            0                       (Unspecified)
system.ruby.network.routers02.sw_input_arbiter_activity       936713                       (Unspecified)
system.ruby.network.routers02.sw_output_arbiter_activity       926630                       (Unspecified)
system.ruby.network.routers03.Var_1                 0                       (Unspecified)
system.ruby.network.routers03.Var_2                 0                       (Unspecified)
system.ruby.network.routers03.Var_3                 0                       (Unspecified)
system.ruby.network.routers03.all_counts            0                       (Unspecified)
system.ruby.network.routers03.buffer_reads       652598                       (Unspecified)
system.ruby.network.routers03.buffer_writes       652598                       (Unspecified)
system.ruby.network.routers03.crossbar_activity       652598                       (Unspecified)
system.ruby.network.routers03.detour_counts            0                       (Unspecified)
system.ruby.network.routers03.regular_var            0                       (Unspecified)
system.ruby.network.routers03.risk_counts            0                       (Unspecified)
system.ruby.network.routers03.sw_input_arbiter_activity       657058                       (Unspecified)
system.ruby.network.routers03.sw_output_arbiter_activity       652598                       (Unspecified)
system.ruby.network.routers04.Var_1                 0                       (Unspecified)
system.ruby.network.routers04.Var_2                 0                       (Unspecified)
system.ruby.network.routers04.Var_3                 0                       (Unspecified)
system.ruby.network.routers04.all_counts            0                       (Unspecified)
system.ruby.network.routers04.buffer_reads       905247                       (Unspecified)
system.ruby.network.routers04.buffer_writes       905247                       (Unspecified)
system.ruby.network.routers04.crossbar_activity       905247                       (Unspecified)
system.ruby.network.routers04.detour_counts            0                       (Unspecified)
system.ruby.network.routers04.regular_var            0                       (Unspecified)
system.ruby.network.routers04.risk_counts            0                       (Unspecified)
system.ruby.network.routers04.sw_input_arbiter_activity       914443                       (Unspecified)
system.ruby.network.routers04.sw_output_arbiter_activity       905247                       (Unspecified)
system.ruby.network.routers05.Var_1                 0                       (Unspecified)
system.ruby.network.routers05.Var_2                 0                       (Unspecified)
system.ruby.network.routers05.Var_3                 0                       (Unspecified)
system.ruby.network.routers05.all_counts            0                       (Unspecified)
system.ruby.network.routers05.buffer_reads      1169324                       (Unspecified)
system.ruby.network.routers05.buffer_writes      1169324                       (Unspecified)
system.ruby.network.routers05.crossbar_activity      1169324                       (Unspecified)
system.ruby.network.routers05.detour_counts            0                       (Unspecified)
system.ruby.network.routers05.regular_var            0                       (Unspecified)
system.ruby.network.routers05.risk_counts            0                       (Unspecified)
system.ruby.network.routers05.sw_input_arbiter_activity      1184974                       (Unspecified)
system.ruby.network.routers05.sw_output_arbiter_activity      1169324                       (Unspecified)
system.ruby.network.routers06.Var_1                 0                       (Unspecified)
system.ruby.network.routers06.Var_2                 0                       (Unspecified)
system.ruby.network.routers06.Var_3                 0                       (Unspecified)
system.ruby.network.routers06.all_counts            0                       (Unspecified)
system.ruby.network.routers06.buffer_reads      1169741                       (Unspecified)
system.ruby.network.routers06.buffer_writes      1169741                       (Unspecified)
system.ruby.network.routers06.crossbar_activity      1169741                       (Unspecified)
system.ruby.network.routers06.detour_counts            0                       (Unspecified)
system.ruby.network.routers06.regular_var            0                       (Unspecified)
system.ruby.network.routers06.risk_counts            0                       (Unspecified)
system.ruby.network.routers06.sw_input_arbiter_activity      1185827                       (Unspecified)
system.ruby.network.routers06.sw_output_arbiter_activity      1169741                       (Unspecified)
system.ruby.network.routers07.Var_1                 0                       (Unspecified)
system.ruby.network.routers07.Var_2                 0                       (Unspecified)
system.ruby.network.routers07.Var_3                 0                       (Unspecified)
system.ruby.network.routers07.all_counts            0                       (Unspecified)
system.ruby.network.routers07.buffer_reads       893083                       (Unspecified)
system.ruby.network.routers07.buffer_writes       893083                       (Unspecified)
system.ruby.network.routers07.crossbar_activity       893083                       (Unspecified)
system.ruby.network.routers07.detour_counts            0                       (Unspecified)
system.ruby.network.routers07.regular_var            0                       (Unspecified)
system.ruby.network.routers07.risk_counts            0                       (Unspecified)
system.ruby.network.routers07.sw_input_arbiter_activity       902635                       (Unspecified)
system.ruby.network.routers07.sw_output_arbiter_activity       893083                       (Unspecified)
system.ruby.network.routers08.Var_1                 0                       (Unspecified)
system.ruby.network.routers08.Var_2                 0                       (Unspecified)
system.ruby.network.routers08.Var_3                 0                       (Unspecified)
system.ruby.network.routers08.all_counts            0                       (Unspecified)
system.ruby.network.routers08.buffer_reads       900656                       (Unspecified)
system.ruby.network.routers08.buffer_writes       900656                       (Unspecified)
system.ruby.network.routers08.crossbar_activity       900656                       (Unspecified)
system.ruby.network.routers08.detour_counts            0                       (Unspecified)
system.ruby.network.routers08.regular_var            0                       (Unspecified)
system.ruby.network.routers08.risk_counts            0                       (Unspecified)
system.ruby.network.routers08.sw_input_arbiter_activity       910006                       (Unspecified)
system.ruby.network.routers08.sw_output_arbiter_activity       900656                       (Unspecified)
system.ruby.network.routers09.Var_1                 0                       (Unspecified)
system.ruby.network.routers09.Var_2                 0                       (Unspecified)
system.ruby.network.routers09.Var_3                 0                       (Unspecified)
system.ruby.network.routers09.all_counts            0                       (Unspecified)
system.ruby.network.routers09.buffer_reads      1167995                       (Unspecified)
system.ruby.network.routers09.buffer_writes      1167995                       (Unspecified)
system.ruby.network.routers09.crossbar_activity      1167995                       (Unspecified)
system.ruby.network.routers09.detour_counts            0                       (Unspecified)
system.ruby.network.routers09.regular_var            0                       (Unspecified)
system.ruby.network.routers09.risk_counts            0                       (Unspecified)
system.ruby.network.routers09.sw_input_arbiter_activity      1183288                       (Unspecified)
system.ruby.network.routers09.sw_output_arbiter_activity      1167995                       (Unspecified)
system.ruby.network.routers10.Var_1                 0                       (Unspecified)
system.ruby.network.routers10.Var_2                 0                       (Unspecified)
system.ruby.network.routers10.Var_3                 0                       (Unspecified)
system.ruby.network.routers10.all_counts            0                       (Unspecified)
system.ruby.network.routers10.buffer_reads      1163581                       (Unspecified)
system.ruby.network.routers10.buffer_writes      1163581                       (Unspecified)
system.ruby.network.routers10.crossbar_activity      1163581                       (Unspecified)
system.ruby.network.routers10.detour_counts            0                       (Unspecified)
system.ruby.network.routers10.regular_var            0                       (Unspecified)
system.ruby.network.routers10.risk_counts            0                       (Unspecified)
system.ruby.network.routers10.sw_input_arbiter_activity      1178309                       (Unspecified)
system.ruby.network.routers10.sw_output_arbiter_activity      1163581                       (Unspecified)
system.ruby.network.routers11.Var_1                 0                       (Unspecified)
system.ruby.network.routers11.Var_2                 0                       (Unspecified)
system.ruby.network.routers11.Var_3                 0                       (Unspecified)
system.ruby.network.routers11.all_counts            0                       (Unspecified)
system.ruby.network.routers11.buffer_reads       887924                       (Unspecified)
system.ruby.network.routers11.buffer_writes       887924                       (Unspecified)
system.ruby.network.routers11.crossbar_activity       887924                       (Unspecified)
system.ruby.network.routers11.detour_counts            0                       (Unspecified)
system.ruby.network.routers11.regular_var            0                       (Unspecified)
system.ruby.network.routers11.risk_counts            0                       (Unspecified)
system.ruby.network.routers11.sw_input_arbiter_activity       896908                       (Unspecified)
system.ruby.network.routers11.sw_output_arbiter_activity       887924                       (Unspecified)
system.ruby.network.routers12.Var_1                 0                       (Unspecified)
system.ruby.network.routers12.Var_2                 0                       (Unspecified)
system.ruby.network.routers12.Var_3                 0                       (Unspecified)
system.ruby.network.routers12.all_counts            0                       (Unspecified)
system.ruby.network.routers12.buffer_reads       647572                       (Unspecified)
system.ruby.network.routers12.buffer_writes       647572                       (Unspecified)
system.ruby.network.routers12.crossbar_activity       647572                       (Unspecified)
system.ruby.network.routers12.detour_counts            0                       (Unspecified)
system.ruby.network.routers12.regular_var            0                       (Unspecified)
system.ruby.network.routers12.risk_counts            0                       (Unspecified)
system.ruby.network.routers12.sw_input_arbiter_activity       651888                       (Unspecified)
system.ruby.network.routers12.sw_output_arbiter_activity       647572                       (Unspecified)
system.ruby.network.routers13.Var_1                 0                       (Unspecified)
system.ruby.network.routers13.Var_2                 0                       (Unspecified)
system.ruby.network.routers13.Var_3                 0                       (Unspecified)
system.ruby.network.routers13.all_counts            0                       (Unspecified)
system.ruby.network.routers13.buffer_reads       911774                       (Unspecified)
system.ruby.network.routers13.buffer_writes       911774                       (Unspecified)
system.ruby.network.routers13.crossbar_activity       911774                       (Unspecified)
system.ruby.network.routers13.detour_counts            0                       (Unspecified)
system.ruby.network.routers13.regular_var            0                       (Unspecified)
system.ruby.network.routers13.risk_counts            0                       (Unspecified)
system.ruby.network.routers13.sw_input_arbiter_activity       921326                       (Unspecified)
system.ruby.network.routers13.sw_output_arbiter_activity       911774                       (Unspecified)
system.ruby.network.routers14.Var_1                 0                       (Unspecified)
system.ruby.network.routers14.Var_2                 0                       (Unspecified)
system.ruby.network.routers14.Var_3                 0                       (Unspecified)
system.ruby.network.routers14.all_counts            0                       (Unspecified)
system.ruby.network.routers14.buffer_reads       906593                       (Unspecified)
system.ruby.network.routers14.buffer_writes       906593                       (Unspecified)
system.ruby.network.routers14.crossbar_activity       906593                       (Unspecified)
system.ruby.network.routers14.detour_counts            0                       (Unspecified)
system.ruby.network.routers14.regular_var            0                       (Unspecified)
system.ruby.network.routers14.risk_counts            0                       (Unspecified)
system.ruby.network.routers14.sw_input_arbiter_activity       915933                       (Unspecified)
system.ruby.network.routers14.sw_output_arbiter_activity       906593                       (Unspecified)
system.ruby.network.routers15.Var_1                 0                       (Unspecified)
system.ruby.network.routers15.Var_2                 0                       (Unspecified)
system.ruby.network.routers15.Var_3                 0                       (Unspecified)
system.ruby.network.routers15.all_counts            0                       (Unspecified)
system.ruby.network.routers15.buffer_reads       642655                       (Unspecified)
system.ruby.network.routers15.buffer_writes       642655                       (Unspecified)
system.ruby.network.routers15.crossbar_activity       642655                       (Unspecified)
system.ruby.network.routers15.detour_counts            0                       (Unspecified)
system.ruby.network.routers15.regular_var            0                       (Unspecified)
system.ruby.network.routers15.risk_counts            0                       (Unspecified)
system.ruby.network.routers15.sw_input_arbiter_activity       646769                       (Unspecified)
system.ruby.network.routers15.sw_output_arbiter_activity       642655                       (Unspecified)

---------- End Simulation Statistics   ----------
