
---------- Begin Simulation Statistics ----------
simSeconds                                   0.008119                       # Number of seconds simulated (Second)
simTicks                                   8119405500                       # Number of ticks simulated (Tick)
finalTick                                  8119405500                       # Number of ticks from beginning of simulation (restored from checkpoints and never reset) (Tick)
simFreq                                  1000000000000                       # The number of ticks per simulated second ((Tick/Second))
hostSeconds                                   2221.28                       # Real time elapsed on the host (Second)
hostTickRate                                  3655289                       # The number of ticks simulated per host second (ticks/s) ((Tick/Second))
hostMemory                                   11407136                       # Number of bytes of host memory used (Byte)
simInsts                                    153573849                       # Number of instructions simulated (Count)
simOps                                      355308460                       # Number of ops (including micro ops) simulated (Count)
hostInstRate                                    69138                       # Simulator instruction rate (inst/s) ((Count/Second))
hostOpRate                                     159957                       # Simulator op (including micro ops) rate (op/s) ((Count/Second))
system.clk_domain.clock                          1000                       # Clock period in ticks (Tick)
system.cpu0.numCycles                        16238812                       # Number of cpu cycles simulated (Cycle)
system.cpu0.numWorkItemsStarted                     0                       # Number of work items this cpu started (Count)
system.cpu0.numWorkItemsCompleted                   0                       # Number of work items this cpu completed (Count)
system.cpu0.instsAdded                       22787076                       # Number of instructions added to the IQ (excludes non-spec) (Count)
system.cpu0.nonSpecInstsAdded                     868                       # Number of non-speculative instructions added to the IQ (Count)
system.cpu0.instsIssued                      22278246                       # Number of instructions issued (Count)
system.cpu0.squashedInstsIssued                  2854                       # Number of squashed instructions issued (Count)
system.cpu0.squashedInstsExamined             1352437                       # Number of squashed instructions iterated over during squash; mainly for profiling (Count)
system.cpu0.squashedOperandsExamined          3009887                       # Number of squashed operands that are examined and possibly removed from graph (Count)
system.cpu0.squashedNonSpecRemoved                135                       # Number of squashed non-spec instructions that were removed (Count)
system.cpu0.numIssuedDist::samples           15106585                       # Number of insts issued each cycle (Count)
system.cpu0.numIssuedDist::mean              1.474737                       # Number of insts issued each cycle (Count)
system.cpu0.numIssuedDist::stdev             1.988586                       # Number of insts issued each cycle (Count)
system.cpu0.numIssuedDist::underflows               0      0.00%      0.00% # Number of insts issued each cycle (Count)
system.cpu0.numIssuedDist::0                  8386188     55.51%     55.51% # Number of insts issued each cycle (Count)
system.cpu0.numIssuedDist::1                  1138395      7.54%     63.05% # Number of insts issued each cycle (Count)
system.cpu0.numIssuedDist::2                  1045980      6.92%     69.97% # Number of insts issued each cycle (Count)
system.cpu0.numIssuedDist::3                  1763374     11.67%     81.65% # Number of insts issued each cycle (Count)
system.cpu0.numIssuedDist::4                  1174238      7.77%     89.42% # Number of insts issued each cycle (Count)
system.cpu0.numIssuedDist::5                   898523      5.95%     95.37% # Number of insts issued each cycle (Count)
system.cpu0.numIssuedDist::6                   410105      2.71%     98.08% # Number of insts issued each cycle (Count)
system.cpu0.numIssuedDist::7                   210684      1.39%     99.48% # Number of insts issued each cycle (Count)
system.cpu0.numIssuedDist::8                    79098      0.52%    100.00% # Number of insts issued each cycle (Count)
system.cpu0.numIssuedDist::overflows                0      0.00%    100.00% # Number of insts issued each cycle (Count)
system.cpu0.numIssuedDist::min_value                0                       # Number of insts issued each cycle (Count)
system.cpu0.numIssuedDist::max_value                8                       # Number of insts issued each cycle (Count)
system.cpu0.numIssuedDist::total             15106585                       # Number of insts issued each cycle (Count)
system.cpu0.statFuBusy::No_OpClass                  0      0.00%      0.00% # attempts to use FU when none available (Count)
system.cpu0.statFuBusy::IntAlu                  77689     74.29%     74.29% # attempts to use FU when none available (Count)
system.cpu0.statFuBusy::IntMult                     0      0.00%     74.29% # attempts to use FU when none available (Count)
system.cpu0.statFuBusy::IntDiv                      0      0.00%     74.29% # attempts to use FU when none available (Count)
system.cpu0.statFuBusy::FloatAdd                    0      0.00%     74.29% # attempts to use FU when none available (Count)
system.cpu0.statFuBusy::FloatCmp                    0      0.00%     74.29% # attempts to use FU when none available (Count)
system.cpu0.statFuBusy::FloatCvt                    1      0.00%     74.29% # attempts to use FU when none available (Count)
system.cpu0.statFuBusy::FloatMult                   0      0.00%     74.29% # attempts to use FU when none available (Count)
system.cpu0.statFuBusy::FloatMultAcc                0      0.00%     74.29% # attempts to use FU when none available (Count)
system.cpu0.statFuBusy::FloatDiv                    0      0.00%     74.29% # attempts to use FU when none available (Count)
system.cpu0.statFuBusy::FloatMisc                   0      0.00%     74.29% # attempts to use FU when none available (Count)
system.cpu0.statFuBusy::FloatSqrt                   0      0.00%     74.29% # attempts to use FU when none available (Count)
system.cpu0.statFuBusy::SimdAdd                     0      0.00%     74.29% # attempts to use FU when none available (Count)
system.cpu0.statFuBusy::SimdAddAcc                  0      0.00%     74.29% # attempts to use FU when none available (Count)
system.cpu0.statFuBusy::SimdAlu                   121      0.12%     74.41% # attempts to use FU when none available (Count)
system.cpu0.statFuBusy::SimdCmp                     0      0.00%     74.41% # attempts to use FU when none available (Count)
system.cpu0.statFuBusy::SimdCvt                   138      0.13%     74.54% # attempts to use FU when none available (Count)
system.cpu0.statFuBusy::SimdMisc                    0      0.00%     74.54% # attempts to use FU when none available (Count)
system.cpu0.statFuBusy::SimdMult                    0      0.00%     74.54% # attempts to use FU when none available (Count)
system.cpu0.statFuBusy::SimdMultAcc                 0      0.00%     74.54% # attempts to use FU when none available (Count)
system.cpu0.statFuBusy::SimdShift                 136      0.13%     74.67% # attempts to use FU when none available (Count)
system.cpu0.statFuBusy::SimdShiftAcc                0      0.00%     74.67% # attempts to use FU when none available (Count)
system.cpu0.statFuBusy::SimdDiv                     0      0.00%     74.67% # attempts to use FU when none available (Count)
system.cpu0.statFuBusy::SimdSqrt                    0      0.00%     74.67% # attempts to use FU when none available (Count)
system.cpu0.statFuBusy::SimdFloatAdd                0      0.00%     74.67% # attempts to use FU when none available (Count)
system.cpu0.statFuBusy::SimdFloatAlu                0      0.00%     74.67% # attempts to use FU when none available (Count)
system.cpu0.statFuBusy::SimdFloatCmp                0      0.00%     74.67% # attempts to use FU when none available (Count)
system.cpu0.statFuBusy::SimdFloatCvt                0      0.00%     74.67% # attempts to use FU when none available (Count)
system.cpu0.statFuBusy::SimdFloatDiv                0      0.00%     74.67% # attempts to use FU when none available (Count)
system.cpu0.statFuBusy::SimdFloatMisc               0      0.00%     74.67% # attempts to use FU when none available (Count)
system.cpu0.statFuBusy::SimdFloatMult               0      0.00%     74.67% # attempts to use FU when none available (Count)
system.cpu0.statFuBusy::SimdFloatMultAcc            0      0.00%     74.67% # attempts to use FU when none available (Count)
system.cpu0.statFuBusy::SimdFloatSqrt               0      0.00%     74.67% # attempts to use FU when none available (Count)
system.cpu0.statFuBusy::SimdReduceAdd               0      0.00%     74.67% # attempts to use FU when none available (Count)
system.cpu0.statFuBusy::SimdReduceAlu               0      0.00%     74.67% # attempts to use FU when none available (Count)
system.cpu0.statFuBusy::SimdReduceCmp               0      0.00%     74.67% # attempts to use FU when none available (Count)
system.cpu0.statFuBusy::SimdFloatReduceAdd            0      0.00%     74.67% # attempts to use FU when none available (Count)
system.cpu0.statFuBusy::SimdFloatReduceCmp            0      0.00%     74.67% # attempts to use FU when none available (Count)
system.cpu0.statFuBusy::SimdAes                     0      0.00%     74.67% # attempts to use FU when none available (Count)
system.cpu0.statFuBusy::SimdAesMix                  0      0.00%     74.67% # attempts to use FU when none available (Count)
system.cpu0.statFuBusy::SimdSha1Hash                0      0.00%     74.67% # attempts to use FU when none available (Count)
system.cpu0.statFuBusy::SimdSha1Hash2               0      0.00%     74.67% # attempts to use FU when none available (Count)
system.cpu0.statFuBusy::SimdSha256Hash              0      0.00%     74.67% # attempts to use FU when none available (Count)
system.cpu0.statFuBusy::SimdSha256Hash2             0      0.00%     74.67% # attempts to use FU when none available (Count)
system.cpu0.statFuBusy::SimdShaSigma2               0      0.00%     74.67% # attempts to use FU when none available (Count)
system.cpu0.statFuBusy::SimdShaSigma3               0      0.00%     74.67% # attempts to use FU when none available (Count)
system.cpu0.statFuBusy::SimdPredAlu                 0      0.00%     74.67% # attempts to use FU when none available (Count)
system.cpu0.statFuBusy::MemRead                 12769     12.21%     86.88% # attempts to use FU when none available (Count)
system.cpu0.statFuBusy::MemWrite                11910     11.39%     98.27% # attempts to use FU when none available (Count)
system.cpu0.statFuBusy::FloatMemRead             1361      1.30%     99.57% # attempts to use FU when none available (Count)
system.cpu0.statFuBusy::FloatMemWrite             445      0.43%    100.00% # attempts to use FU when none available (Count)
system.cpu0.statFuBusy::IprAccess                   0      0.00%    100.00% # attempts to use FU when none available (Count)
system.cpu0.statFuBusy::InstPrefetch                0      0.00%    100.00% # attempts to use FU when none available (Count)
system.cpu0.statIssuedInstType_0::No_OpClass        35309      0.16%      0.16% # Number of instructions issued per FU type, per thread (Count)
system.cpu0.statIssuedInstType_0::IntAlu     17557423     78.81%     78.97% # Number of instructions issued per FU type, per thread (Count)
system.cpu0.statIssuedInstType_0::IntMult           35      0.00%     78.97% # Number of instructions issued per FU type, per thread (Count)
system.cpu0.statIssuedInstType_0::IntDiv        38130      0.17%     79.14% # Number of instructions issued per FU type, per thread (Count)
system.cpu0.statIssuedInstType_0::FloatAdd         4212      0.02%     79.16% # Number of instructions issued per FU type, per thread (Count)
system.cpu0.statIssuedInstType_0::FloatCmp            0      0.00%     79.16% # Number of instructions issued per FU type, per thread (Count)
system.cpu0.statIssuedInstType_0::FloatCvt         1454      0.01%     79.16% # Number of instructions issued per FU type, per thread (Count)
system.cpu0.statIssuedInstType_0::FloatMult            0      0.00%     79.16% # Number of instructions issued per FU type, per thread (Count)
system.cpu0.statIssuedInstType_0::FloatMultAcc            0      0.00%     79.16% # Number of instructions issued per FU type, per thread (Count)
system.cpu0.statIssuedInstType_0::FloatDiv            0      0.00%     79.16% # Number of instructions issued per FU type, per thread (Count)
system.cpu0.statIssuedInstType_0::FloatMisc            0      0.00%     79.16% # Number of instructions issued per FU type, per thread (Count)
system.cpu0.statIssuedInstType_0::FloatSqrt            0      0.00%     79.16% # Number of instructions issued per FU type, per thread (Count)
system.cpu0.statIssuedInstType_0::SimdAdd         8243      0.04%     79.20% # Number of instructions issued per FU type, per thread (Count)
system.cpu0.statIssuedInstType_0::SimdAddAcc            0      0.00%     79.20% # Number of instructions issued per FU type, per thread (Count)
system.cpu0.statIssuedInstType_0::SimdAlu        16771      0.08%     79.28% # Number of instructions issued per FU type, per thread (Count)
system.cpu0.statIssuedInstType_0::SimdCmp            0      0.00%     79.28% # Number of instructions issued per FU type, per thread (Count)
system.cpu0.statIssuedInstType_0::SimdCvt        18424      0.08%     79.36% # Number of instructions issued per FU type, per thread (Count)
system.cpu0.statIssuedInstType_0::SimdMisc         8651      0.04%     79.40% # Number of instructions issued per FU type, per thread (Count)
system.cpu0.statIssuedInstType_0::SimdMult            0      0.00%     79.40% # Number of instructions issued per FU type, per thread (Count)
system.cpu0.statIssuedInstType_0::SimdMultAcc            0      0.00%     79.40% # Number of instructions issued per FU type, per thread (Count)
system.cpu0.statIssuedInstType_0::SimdShift         2458      0.01%     79.41% # Number of instructions issued per FU type, per thread (Count)
system.cpu0.statIssuedInstType_0::SimdShiftAcc            0      0.00%     79.41% # Number of instructions issued per FU type, per thread (Count)
system.cpu0.statIssuedInstType_0::SimdDiv            0      0.00%     79.41% # Number of instructions issued per FU type, per thread (Count)
system.cpu0.statIssuedInstType_0::SimdSqrt            0      0.00%     79.41% # Number of instructions issued per FU type, per thread (Count)
system.cpu0.statIssuedInstType_0::SimdFloatAdd            0      0.00%     79.41% # Number of instructions issued per FU type, per thread (Count)
system.cpu0.statIssuedInstType_0::SimdFloatAlu            0      0.00%     79.41% # Number of instructions issued per FU type, per thread (Count)
system.cpu0.statIssuedInstType_0::SimdFloatCmp            0      0.00%     79.41% # Number of instructions issued per FU type, per thread (Count)
system.cpu0.statIssuedInstType_0::SimdFloatCvt            0      0.00%     79.41% # Number of instructions issued per FU type, per thread (Count)
system.cpu0.statIssuedInstType_0::SimdFloatDiv            0      0.00%     79.41% # Number of instructions issued per FU type, per thread (Count)
system.cpu0.statIssuedInstType_0::SimdFloatMisc            0      0.00%     79.41% # Number of instructions issued per FU type, per thread (Count)
system.cpu0.statIssuedInstType_0::SimdFloatMult            0      0.00%     79.41% # Number of instructions issued per FU type, per thread (Count)
system.cpu0.statIssuedInstType_0::SimdFloatMultAcc            0      0.00%     79.41% # Number of instructions issued per FU type, per thread (Count)
system.cpu0.statIssuedInstType_0::SimdFloatSqrt            0      0.00%     79.41% # Number of instructions issued per FU type, per thread (Count)
system.cpu0.statIssuedInstType_0::SimdReduceAdd            0      0.00%     79.41% # Number of instructions issued per FU type, per thread (Count)
system.cpu0.statIssuedInstType_0::SimdReduceAlu            0      0.00%     79.41% # Number of instructions issued per FU type, per thread (Count)
system.cpu0.statIssuedInstType_0::SimdReduceCmp            0      0.00%     79.41% # Number of instructions issued per FU type, per thread (Count)
system.cpu0.statIssuedInstType_0::SimdFloatReduceAdd            0      0.00%     79.41% # Number of instructions issued per FU type, per thread (Count)
system.cpu0.statIssuedInstType_0::SimdFloatReduceCmp            0      0.00%     79.41% # Number of instructions issued per FU type, per thread (Count)
system.cpu0.statIssuedInstType_0::SimdAes            0      0.00%     79.41% # Number of instructions issued per FU type, per thread (Count)
system.cpu0.statIssuedInstType_0::SimdAesMix            0      0.00%     79.41% # Number of instructions issued per FU type, per thread (Count)
system.cpu0.statIssuedInstType_0::SimdSha1Hash            0      0.00%     79.41% # Number of instructions issued per FU type, per thread (Count)
system.cpu0.statIssuedInstType_0::SimdSha1Hash2            0      0.00%     79.41% # Number of instructions issued per FU type, per thread (Count)
system.cpu0.statIssuedInstType_0::SimdSha256Hash            0      0.00%     79.41% # Number of instructions issued per FU type, per thread (Count)
system.cpu0.statIssuedInstType_0::SimdSha256Hash2            0      0.00%     79.41% # Number of instructions issued per FU type, per thread (Count)
system.cpu0.statIssuedInstType_0::SimdShaSigma2            0      0.00%     79.41% # Number of instructions issued per FU type, per thread (Count)
system.cpu0.statIssuedInstType_0::SimdShaSigma3            0      0.00%     79.41% # Number of instructions issued per FU type, per thread (Count)
system.cpu0.statIssuedInstType_0::SimdPredAlu            0      0.00%     79.41% # Number of instructions issued per FU type, per thread (Count)
system.cpu0.statIssuedInstType_0::MemRead      2816048     12.64%     92.05% # Number of instructions issued per FU type, per thread (Count)
system.cpu0.statIssuedInstType_0::MemWrite      1720450      7.72%     99.77% # Number of instructions issued per FU type, per thread (Count)
system.cpu0.statIssuedInstType_0::FloatMemRead        32986      0.15%     99.92% # Number of instructions issued per FU type, per thread (Count)
system.cpu0.statIssuedInstType_0::FloatMemWrite        17652      0.08%    100.00% # Number of instructions issued per FU type, per thread (Count)
system.cpu0.statIssuedInstType_0::IprAccess            0      0.00%    100.00% # Number of instructions issued per FU type, per thread (Count)
system.cpu0.statIssuedInstType_0::InstPrefetch            0      0.00%    100.00% # Number of instructions issued per FU type, per thread (Count)
system.cpu0.statIssuedInstType_0::total      22278246                       # Number of instructions issued per FU type, per thread (Count)
system.cpu0.issueRate                        1.371914                       # Inst issue rate ((Count/Cycle))
system.cpu0.fuBusy                             104570                       # FU busy when requested (Count)
system.cpu0.fuBusyRate                       0.004694                       # FU busy rate (busy events/executed inst) ((Count/Count))
system.cpu0.intInstQueueReads                59543983                       # Number of integer instruction queue reads (Count)
system.cpu0.intInstQueueWrites               23967561                       # Number of integer instruction queue writes (Count)
system.cpu0.intInstQueueWakeupAccesses       22069842                       # Number of integer instruction queue wakeup accesses (Count)
system.cpu0.fpInstQueueReads                   226512                       # Number of floating instruction queue reads (Count)
system.cpu0.fpInstQueueWrites                  173085                       # Number of floating instruction queue writes (Count)
system.cpu0.fpInstQueueWakeupAccesses          108207                       # Number of floating instruction queue wakeup accesses (Count)
system.cpu0.vecInstQueueReads                       0                       # Number of vector instruction queue reads (Count)
system.cpu0.vecInstQueueWrites                      0                       # Number of vector instruction queue writes (Count)
system.cpu0.vecInstQueueWakeupAccesses              0                       # Number of vector instruction queue wakeup accesses (Count)
system.cpu0.intAluAccesses                   22233302                       # Number of integer alu accesses (Count)
system.cpu0.fpAluAccesses                      114205                       # Number of floating point alu accesses (Count)
system.cpu0.vecAluAccesses                          0                       # Number of vector alu accesses (Count)
system.cpu0.numInsts                         22217861                       # Number of executed instructions (Count)
system.cpu0.numLoadInsts                      2837107                       # Number of load instructions executed (Count)
system.cpu0.numSquashedInsts                    60379                       # Number of squashed instructions skipped in execute (Count)
system.cpu0.numSwp                                  0                       # Number of swp insts executed (Count)
system.cpu0.numNop                                  0                       # Number of nop insts executed (Count)
system.cpu0.numRefs                           4573091                       # Number of memory reference insts executed (Count)
system.cpu0.numBranches                       1822061                       # Number of branches executed (Count)
system.cpu0.numStoreInsts                     1735984                       # Number of stores executed (Count)
system.cpu0.numRate                          1.368195                       # Inst execution rate ((Count/Cycle))
system.cpu0.timesIdled                           2177                       # Number of times that the entire CPU went into an idle state and unscheduled itself (Count)
system.cpu0.idleCycles                        1132227                       # Total number of cycles that the CPU has spent unscheduled due to idling (Cycle)
system.cpu0.committedInsts                    9287647                       # Number of Instructions Simulated (Count)
system.cpu0.committedOps                     21435345                       # Number of Ops (including micro ops) Simulated (Count)
system.cpu0.cpi                              1.748431                       # CPI: Cycles Per Instruction ((Cycle/Count))
system.cpu0.totalCpi                         1.748431                       # CPI: Total CPI of All Threads ((Cycle/Count))
system.cpu0.ipc                              0.571941                       # IPC: Instructions Per Cycle ((Count/Cycle))
system.cpu0.totalIpc                         0.571941                       # IPC: Total IPC of All Threads ((Count/Cycle))
system.cpu0.intRegfileReads                  35060473                       # Number of integer regfile reads (Count)
system.cpu0.intRegfileWrites                 17975440                       # Number of integer regfile writes (Count)
system.cpu0.fpRegfileReads                     147503                       # Number of floating regfile reads (Count)
system.cpu0.fpRegfileWrites                     81776                       # Number of floating regfile writes (Count)
system.cpu0.ccRegfileReads                   14887775                       # number of cc regfile reads (Count)
system.cpu0.ccRegfileWrites                  10524834                       # number of cc regfile writes (Count)
system.cpu0.miscRegfileReads                  5875773                       # number of misc regfile reads (Count)
system.cpu0.miscRegfileWrites                     729                       # number of misc regfile writes (Count)
system.cpu0.MemDepUnit__0.insertedLoads       2898843                       # Number of loads inserted to the mem dependence unit. (Count)
system.cpu0.MemDepUnit__0.insertedStores      1767979                       # Number of stores inserted to the mem dependence unit. (Count)
system.cpu0.MemDepUnit__0.conflictingLoads       395122                       # Number of conflicting loads. (Count)
system.cpu0.MemDepUnit__0.conflictingStores       205817                       # Number of conflicting stores. (Count)
system.cpu0.MemDepUnit__1.insertedLoads             0                       # Number of loads inserted to the mem dependence unit. (Count)
system.cpu0.MemDepUnit__1.insertedStores            0                       # Number of stores inserted to the mem dependence unit. (Count)
system.cpu0.MemDepUnit__1.conflictingLoads            0                       # Number of conflicting loads. (Count)
system.cpu0.MemDepUnit__1.conflictingStores            0                       # Number of conflicting stores. (Count)
system.cpu0.MemDepUnit__2.insertedLoads             0                       # Number of loads inserted to the mem dependence unit. (Count)
system.cpu0.MemDepUnit__2.insertedStores            0                       # Number of stores inserted to the mem dependence unit. (Count)
system.cpu0.MemDepUnit__2.conflictingLoads            0                       # Number of conflicting loads. (Count)
system.cpu0.MemDepUnit__2.conflictingStores            0                       # Number of conflicting stores. (Count)
system.cpu0.MemDepUnit__3.insertedLoads             0                       # Number of loads inserted to the mem dependence unit. (Count)
system.cpu0.MemDepUnit__3.insertedStores            0                       # Number of stores inserted to the mem dependence unit. (Count)
system.cpu0.MemDepUnit__3.conflictingLoads            0                       # Number of conflicting loads. (Count)
system.cpu0.MemDepUnit__3.conflictingStores            0                       # Number of conflicting stores. (Count)
system.cpu0.branchPred.lookups                2003350                       # Number of BP lookups (Count)
system.cpu0.branchPred.condPredicted          1937249                       # Number of conditional branches predicted (Count)
system.cpu0.branchPred.condIncorrect            44697                       # Number of conditional branches incorrect (Count)
system.cpu0.branchPred.BTBLookups             1756530                       # Number of BTB lookups (Count)
system.cpu0.branchPred.BTBUpdates               18867                       # Number of BTB updates (Count)
system.cpu0.branchPred.BTBHits                1752690                       # Number of BTB hits (Count)
system.cpu0.branchPred.BTBHitRatio           0.997814                       # BTB Hit Ratio (Ratio)
system.cpu0.branchPred.RASUsed                  15410                       # Number of times the RAS was used to get a target. (Count)
system.cpu0.branchPred.RASIncorrect                 8                       # Number of incorrect RAS predictions. (Count)
system.cpu0.branchPred.indirectLookups           9476                       # Number of indirect predictor lookups. (Count)
system.cpu0.branchPred.indirectHits              5096                       # Number of indirect target hits. (Count)
system.cpu0.branchPred.indirectMisses            4380                       # Number of indirect misses. (Count)
system.cpu0.branchPred.indirectMispredicted         1109                       # Number of mispredicted indirect branches. (Count)
system.cpu0.commit.commitSquashedInsts        1343460                       # The number of squashed insts skipped by commit (Count)
system.cpu0.commit.commitNonSpecStalls            733                       # The number of times commit has been forced to stall to communicate backwards (Count)
system.cpu0.commit.branchMispredicts            37505                       # The number of times a branch was mispredicted (Count)
system.cpu0.commit.numCommittedDist::samples     14909227                       # Number of insts commited each cycle (Count)
system.cpu0.commit.numCommittedDist::mean     1.437723                       # Number of insts commited each cycle (Count)
system.cpu0.commit.numCommittedDist::stdev     2.346763                       # Number of insts commited each cycle (Count)
system.cpu0.commit.numCommittedDist::underflows            0      0.00%      0.00% # Number of insts commited each cycle (Count)
system.cpu0.commit.numCommittedDist::0        8883489     59.58%     59.58% # Number of insts commited each cycle (Count)
system.cpu0.commit.numCommittedDist::1        2036844     13.66%     73.25% # Number of insts commited each cycle (Count)
system.cpu0.commit.numCommittedDist::2         674033      4.52%     77.77% # Number of insts commited each cycle (Count)
system.cpu0.commit.numCommittedDist::3         483064      3.24%     81.01% # Number of insts commited each cycle (Count)
system.cpu0.commit.numCommittedDist::4         718801      4.82%     85.83% # Number of insts commited each cycle (Count)
system.cpu0.commit.numCommittedDist::5         564201      3.78%     89.61% # Number of insts commited each cycle (Count)
system.cpu0.commit.numCommittedDist::6         699114      4.69%     94.30% # Number of insts commited each cycle (Count)
system.cpu0.commit.numCommittedDist::7          87098      0.58%     94.89% # Number of insts commited each cycle (Count)
system.cpu0.commit.numCommittedDist::8         762583      5.11%    100.00% # Number of insts commited each cycle (Count)
system.cpu0.commit.numCommittedDist::overflows            0      0.00%    100.00% # Number of insts commited each cycle (Count)
system.cpu0.commit.numCommittedDist::min_value            0                       # Number of insts commited each cycle (Count)
system.cpu0.commit.numCommittedDist::max_value            8                       # Number of insts commited each cycle (Count)
system.cpu0.commit.numCommittedDist::total     14909227                       # Number of insts commited each cycle (Count)
system.cpu0.commit.instsCommitted             9287647                       # Number of instructions committed (Count)
system.cpu0.commit.opsCommitted              21435345                       # Number of ops (including micro ops) committed (Count)
system.cpu0.commit.memRefs                    4425273                       # Number of memory references committed (Count)
system.cpu0.commit.loads                      2714586                       # Number of loads committed (Count)
system.cpu0.commit.amos                             0                       # Number of atomic instructions committed (Count)
system.cpu0.commit.membars                          0                       # Number of memory barriers committed (Count)
system.cpu0.commit.branches                   1777892                       # Number of branches committed (Count)
system.cpu0.commit.vectorInstructions               0                       # Number of committed Vector instructions. (Count)
system.cpu0.commit.floating                     79719                       # Number of committed floating point instructions. (Count)
system.cpu0.commit.integer                   20175609                       # Number of committed integer instructions. (Count)
system.cpu0.commit.functionCalls                11709                       # Number of function calls committed. (Count)
system.cpu0.commit.committedInstType_0::No_OpClass        19764      0.09%      0.09% # Class of committed instruction (Count)
system.cpu0.commit.committedInstType_0::IntAlu     16910032     78.89%     78.98% # Class of committed instruction (Count)
system.cpu0.commit.committedInstType_0::IntMult           29      0.00%     78.98% # Class of committed instruction (Count)
system.cpu0.commit.committedInstType_0::IntDiv        35785      0.17%     79.15% # Class of committed instruction (Count)
system.cpu0.commit.committedInstType_0::FloatAdd         3076      0.01%     79.16% # Class of committed instruction (Count)
system.cpu0.commit.committedInstType_0::FloatCmp            0      0.00%     79.16% # Class of committed instruction (Count)
system.cpu0.commit.committedInstType_0::FloatCvt         1296      0.01%     79.17% # Class of committed instruction (Count)
system.cpu0.commit.committedInstType_0::FloatMult            0      0.00%     79.17% # Class of committed instruction (Count)
system.cpu0.commit.committedInstType_0::FloatMultAcc            0      0.00%     79.17% # Class of committed instruction (Count)
system.cpu0.commit.committedInstType_0::FloatDiv            0      0.00%     79.17% # Class of committed instruction (Count)
system.cpu0.commit.committedInstType_0::FloatMisc            0      0.00%     79.17% # Class of committed instruction (Count)
system.cpu0.commit.committedInstType_0::FloatSqrt            0      0.00%     79.17% # Class of committed instruction (Count)
system.cpu0.commit.committedInstType_0::SimdAdd         6674      0.03%     79.20% # Class of committed instruction (Count)
system.cpu0.commit.committedInstType_0::SimdAddAcc            0      0.00%     79.20% # Class of committed instruction (Count)
system.cpu0.commit.committedInstType_0::SimdAlu        11967      0.06%     79.26% # Class of committed instruction (Count)
system.cpu0.commit.committedInstType_0::SimdCmp            0      0.00%     79.26% # Class of committed instruction (Count)
system.cpu0.commit.committedInstType_0::SimdCvt        13044      0.06%     79.32% # Class of committed instruction (Count)
system.cpu0.commit.committedInstType_0::SimdMisc         7084      0.03%     79.35% # Class of committed instruction (Count)
system.cpu0.commit.committedInstType_0::SimdMult            0      0.00%     79.35% # Class of committed instruction (Count)
system.cpu0.commit.committedInstType_0::SimdMultAcc            0      0.00%     79.35% # Class of committed instruction (Count)
system.cpu0.commit.committedInstType_0::SimdShift         1321      0.01%     79.36% # Class of committed instruction (Count)
system.cpu0.commit.committedInstType_0::SimdShiftAcc            0      0.00%     79.36% # Class of committed instruction (Count)
system.cpu0.commit.committedInstType_0::SimdDiv            0      0.00%     79.36% # Class of committed instruction (Count)
system.cpu0.commit.committedInstType_0::SimdSqrt            0      0.00%     79.36% # Class of committed instruction (Count)
system.cpu0.commit.committedInstType_0::SimdFloatAdd            0      0.00%     79.36% # Class of committed instruction (Count)
system.cpu0.commit.committedInstType_0::SimdFloatAlu            0      0.00%     79.36% # Class of committed instruction (Count)
system.cpu0.commit.committedInstType_0::SimdFloatCmp            0      0.00%     79.36% # Class of committed instruction (Count)
system.cpu0.commit.committedInstType_0::SimdFloatCvt            0      0.00%     79.36% # Class of committed instruction (Count)
system.cpu0.commit.committedInstType_0::SimdFloatDiv            0      0.00%     79.36% # Class of committed instruction (Count)
system.cpu0.commit.committedInstType_0::SimdFloatMisc            0      0.00%     79.36% # Class of committed instruction (Count)
system.cpu0.commit.committedInstType_0::SimdFloatMult            0      0.00%     79.36% # Class of committed instruction (Count)
system.cpu0.commit.committedInstType_0::SimdFloatMultAcc            0      0.00%     79.36% # Class of committed instruction (Count)
system.cpu0.commit.committedInstType_0::SimdFloatSqrt            0      0.00%     79.36% # Class of committed instruction (Count)
system.cpu0.commit.committedInstType_0::SimdReduceAdd            0      0.00%     79.36% # Class of committed instruction (Count)
system.cpu0.commit.committedInstType_0::SimdReduceAlu            0      0.00%     79.36% # Class of committed instruction (Count)
system.cpu0.commit.committedInstType_0::SimdReduceCmp            0      0.00%     79.36% # Class of committed instruction (Count)
system.cpu0.commit.committedInstType_0::SimdFloatReduceAdd            0      0.00%     79.36% # Class of committed instruction (Count)
system.cpu0.commit.committedInstType_0::SimdFloatReduceCmp            0      0.00%     79.36% # Class of committed instruction (Count)
system.cpu0.commit.committedInstType_0::SimdAes            0      0.00%     79.36% # Class of committed instruction (Count)
system.cpu0.commit.committedInstType_0::SimdAesMix            0      0.00%     79.36% # Class of committed instruction (Count)
system.cpu0.commit.committedInstType_0::SimdSha1Hash            0      0.00%     79.36% # Class of committed instruction (Count)
system.cpu0.commit.committedInstType_0::SimdSha1Hash2            0      0.00%     79.36% # Class of committed instruction (Count)
system.cpu0.commit.committedInstType_0::SimdSha256Hash            0      0.00%     79.36% # Class of committed instruction (Count)
system.cpu0.commit.committedInstType_0::SimdSha256Hash2            0      0.00%     79.36% # Class of committed instruction (Count)
system.cpu0.commit.committedInstType_0::SimdShaSigma2            0      0.00%     79.36% # Class of committed instruction (Count)
system.cpu0.commit.committedInstType_0::SimdShaSigma3            0      0.00%     79.36% # Class of committed instruction (Count)
system.cpu0.commit.committedInstType_0::SimdPredAlu            0      0.00%     79.36% # Class of committed instruction (Count)
system.cpu0.commit.committedInstType_0::MemRead      2693851     12.57%     91.92% # Class of committed instruction (Count)
system.cpu0.commit.committedInstType_0::MemWrite      1697065      7.92%     99.84% # Class of committed instruction (Count)
system.cpu0.commit.committedInstType_0::FloatMemRead        20735      0.10%     99.94% # Class of committed instruction (Count)
system.cpu0.commit.committedInstType_0::FloatMemWrite        13622      0.06%    100.00% # Class of committed instruction (Count)
system.cpu0.commit.committedInstType_0::IprAccess            0      0.00%    100.00% # Class of committed instruction (Count)
system.cpu0.commit.committedInstType_0::InstPrefetch            0      0.00%    100.00% # Class of committed instruction (Count)
system.cpu0.commit.committedInstType_0::total     21435345                       # Class of committed instruction (Count)
system.cpu0.commit.commitEligibleSamples       762583                       # number cycles where commit BW limit reached (Cycle)
system.cpu0.decode.idleCycles                 1254352                       # Number of cycles decode is idle (Cycle)
system.cpu0.decode.blockedCycles             10708036                       # Number of cycles decode is blocked (Cycle)
system.cpu0.decode.runCycles                  1620842                       # Number of cycles decode is running (Cycle)
system.cpu0.decode.unblockCycles              1485028                       # Number of cycles decode is unblocking (Cycle)
system.cpu0.decode.squashCycles                 38327                       # Number of cycles decode is squashing (Cycle)
system.cpu0.decode.branchResolved             1692788                       # Number of times decode resolved a branch (Count)
system.cpu0.decode.branchMispred                 9491                       # Number of times decode detected a branch misprediction (Count)
system.cpu0.decode.decodedInsts              23213028                       # Number of instructions handled by decode (Count)
system.cpu0.decode.squashedInsts                38782                       # Number of squashed instructions handled by decode (Count)
system.cpu0.fetch.icacheStallCycles           1087603                       # Number of cycles fetch is stalled on an Icache miss (Cycle)
system.cpu0.fetch.insts                      10617565                       # Number of instructions fetch has processed (Count)
system.cpu0.fetch.branches                    2003350                       # Number of branches that fetch encountered (Count)
system.cpu0.fetch.predictedBranches           1773196                       # Number of branches that fetch has predicted taken (Count)
system.cpu0.fetch.cycles                     13731758                       # Number of cycles fetch has run and was not squashing or blocked (Cycle)
system.cpu0.fetch.squashCycles                  95586                       # Number of cycles fetch has spent squashing (Cycle)
system.cpu0.fetch.miscStallCycles               13645                       # Number of cycles fetch has spent waiting on interrupts, or bad addresses, or out of MSHRs (Cycle)
system.cpu0.fetch.pendingTrapStallCycles        14911                       # Number of stall cycles due to pending traps (Cycle)
system.cpu0.fetch.icacheWaitRetryStallCycles       210875                       # Number of stall cycles due to full MSHR (Cycle)
system.cpu0.fetch.cacheLines                   880432                       # Number of cache lines fetched (Count)
system.cpu0.fetch.icacheSquashes                 8792                       # Number of outstanding Icache misses that were squashed (Count)
system.cpu0.fetch.nisnDist::samples          15106585                       # Number of instructions fetched each cycle (Total) (Count)
system.cpu0.fetch.nisnDist::mean             1.591371                       # Number of instructions fetched each cycle (Total) (Count)
system.cpu0.fetch.nisnDist::stdev            3.035746                       # Number of instructions fetched each cycle (Total) (Count)
system.cpu0.fetch.nisnDist::underflows              0      0.00%      0.00% # Number of instructions fetched each cycle (Total) (Count)
system.cpu0.fetch.nisnDist::0                11498963     76.12%     76.12% # Number of instructions fetched each cycle (Total) (Count)
system.cpu0.fetch.nisnDist::1                  198503      1.31%     77.43% # Number of instructions fetched each cycle (Total) (Count)
system.cpu0.fetch.nisnDist::2                  116798      0.77%     78.21% # Number of instructions fetched each cycle (Total) (Count)
system.cpu0.fetch.nisnDist::3                  142576      0.94%     79.15% # Number of instructions fetched each cycle (Total) (Count)
system.cpu0.fetch.nisnDist::4                  228342      1.51%     80.66% # Number of instructions fetched each cycle (Total) (Count)
system.cpu0.fetch.nisnDist::5                  166454      1.10%     81.76% # Number of instructions fetched each cycle (Total) (Count)
system.cpu0.fetch.nisnDist::6                  234049      1.55%     83.31% # Number of instructions fetched each cycle (Total) (Count)
system.cpu0.fetch.nisnDist::7                  136775      0.91%     84.22% # Number of instructions fetched each cycle (Total) (Count)
system.cpu0.fetch.nisnDist::8                 2384125     15.78%    100.00% # Number of instructions fetched each cycle (Total) (Count)
system.cpu0.fetch.nisnDist::overflows               0      0.00%    100.00% # Number of instructions fetched each cycle (Total) (Count)
system.cpu0.fetch.nisnDist::min_value               0                       # Number of instructions fetched each cycle (Total) (Count)
system.cpu0.fetch.nisnDist::max_value               8                       # Number of instructions fetched each cycle (Total) (Count)
system.cpu0.fetch.nisnDist::total            15106585                       # Number of instructions fetched each cycle (Total) (Count)
system.cpu0.fetch.branchRate                 0.123368                       # Number of branch fetches per cycle (Ratio)
system.cpu0.fetch.rate                       0.653839                       # Number of inst fetches per cycle ((Count/Cycle))
system.cpu0.iew.idleCycles                          0                       # Number of cycles IEW is idle (Cycle)
system.cpu0.iew.squashCycles                    38327                       # Number of cycles IEW is squashing (Cycle)
system.cpu0.iew.blockCycles                   5349529                       # Number of cycles IEW is blocking (Cycle)
system.cpu0.iew.unblockCycles                  165187                       # Number of cycles IEW is unblocking (Cycle)
system.cpu0.iew.dispatchedInsts              22787944                       # Number of instructions dispatched to IQ (Count)
system.cpu0.iew.dispSquashedInsts               11993                       # Number of squashed instructions skipped by dispatch (Count)
system.cpu0.iew.dispLoadInsts                 2898843                       # Number of dispatched load instructions (Count)
system.cpu0.iew.dispStoreInsts                1767979                       # Number of dispatched store instructions (Count)
system.cpu0.iew.dispNonSpecInsts                  749                       # Number of dispatched non-speculative instructions (Count)
system.cpu0.iew.iqFullEvents                    13505                       # Number of times the IQ has become full, causing a stall (Count)
system.cpu0.iew.lsqFullEvents                  146566                       # Number of times the LSQ has become full, causing a stall (Count)
system.cpu0.iew.memOrderViolationEvents           272                       # Number of memory order violations (Count)
system.cpu0.iew.predictedTakenIncorrect         25352                       # Number of branches that were predicted taken incorrectly (Count)
system.cpu0.iew.predictedNotTakenIncorrect        14327                       # Number of branches that were predicted not taken incorrectly (Count)
system.cpu0.iew.branchMispredicts               39679                       # Number of branch mispredicts detected at execute (Count)
system.cpu0.iew.instsToCommit                22191596                       # Cumulative count of insts sent to commit (Count)
system.cpu0.iew.writebackCount               22178049                       # Cumulative count of insts written-back (Count)
system.cpu0.iew.producerInst                 16874887                       # Number of instructions producing a value (Count)
system.cpu0.iew.consumerInst                 30990942                       # Number of instructions consuming a value (Count)
system.cpu0.iew.wbRate                       1.365743                       # Insts written-back per cycle ((Count/Cycle))
system.cpu0.iew.wbFanout                     0.544510                       # Average fanout of values written-back ((Count/Count))
system.cpu0.interrupts.clk_domain.clock          8000                       # Clock period in ticks (Tick)
system.cpu0.lsq0.forwLoads                     493748                       # Number of loads that had data forwarded from stores (Count)
system.cpu0.lsq0.squashedLoads                 184241                       # Number of loads squashed (Count)
system.cpu0.lsq0.ignoredResponses                  95                       # Number of memory responses ignored because the instruction is squashed (Count)
system.cpu0.lsq0.memOrderViolation                272                       # Number of memory ordering violations (Count)
system.cpu0.lsq0.squashedStores                 57288                       # Number of stores squashed (Count)
system.cpu0.lsq0.rescheduledLoads                2359                       # Number of loads that were rescheduled (Count)
system.cpu0.lsq0.blockedByCache                  2067                       # Number of times an access to memory failed due to the cache being blocked (Count)
system.cpu0.lsq0.loadToUse::samples           2714507                       # Distribution of cycle latency between the first time a load is issued and its completion (Unspecified)
system.cpu0.lsq0.loadToUse::mean            15.071445                       # Distribution of cycle latency between the first time a load is issued and its completion (Unspecified)
system.cpu0.lsq0.loadToUse::stdev          101.364539                       # Distribution of cycle latency between the first time a load is issued and its completion (Unspecified)
system.cpu0.lsq0.loadToUse::0-9               2668932     98.32%     98.32% # Distribution of cycle latency between the first time a load is issued and its completion (Unspecified)
system.cpu0.lsq0.loadToUse::10-19                  56      0.00%     98.32% # Distribution of cycle latency between the first time a load is issued and its completion (Unspecified)
system.cpu0.lsq0.loadToUse::20-29                  89      0.00%     98.33% # Distribution of cycle latency between the first time a load is issued and its completion (Unspecified)
system.cpu0.lsq0.loadToUse::30-39                  66      0.00%     98.33% # Distribution of cycle latency between the first time a load is issued and its completion (Unspecified)
system.cpu0.lsq0.loadToUse::40-49                  64      0.00%     98.33% # Distribution of cycle latency between the first time a load is issued and its completion (Unspecified)
system.cpu0.lsq0.loadToUse::50-59                 101      0.00%     98.33% # Distribution of cycle latency between the first time a load is issued and its completion (Unspecified)
system.cpu0.lsq0.loadToUse::60-69                  86      0.00%     98.34% # Distribution of cycle latency between the first time a load is issued and its completion (Unspecified)
system.cpu0.lsq0.loadToUse::70-79                  66      0.00%     98.34% # Distribution of cycle latency between the first time a load is issued and its completion (Unspecified)
system.cpu0.lsq0.loadToUse::80-89                  92      0.00%     98.34% # Distribution of cycle latency between the first time a load is issued and its completion (Unspecified)
system.cpu0.lsq0.loadToUse::90-99                  68      0.00%     98.35% # Distribution of cycle latency between the first time a load is issued and its completion (Unspecified)
system.cpu0.lsq0.loadToUse::100-109                69      0.00%     98.35% # Distribution of cycle latency between the first time a load is issued and its completion (Unspecified)
system.cpu0.lsq0.loadToUse::110-119                73      0.00%     98.35% # Distribution of cycle latency between the first time a load is issued and its completion (Unspecified)
system.cpu0.lsq0.loadToUse::120-129                50      0.00%     98.35% # Distribution of cycle latency between the first time a load is issued and its completion (Unspecified)
system.cpu0.lsq0.loadToUse::130-139                38      0.00%     98.35% # Distribution of cycle latency between the first time a load is issued and its completion (Unspecified)
system.cpu0.lsq0.loadToUse::140-149                67      0.00%     98.36% # Distribution of cycle latency between the first time a load is issued and its completion (Unspecified)
system.cpu0.lsq0.loadToUse::150-159                50      0.00%     98.36% # Distribution of cycle latency between the first time a load is issued and its completion (Unspecified)
system.cpu0.lsq0.loadToUse::160-169                71      0.00%     98.36% # Distribution of cycle latency between the first time a load is issued and its completion (Unspecified)
system.cpu0.lsq0.loadToUse::170-179               133      0.00%     98.37% # Distribution of cycle latency between the first time a load is issued and its completion (Unspecified)
system.cpu0.lsq0.loadToUse::180-189               582      0.02%     98.39% # Distribution of cycle latency between the first time a load is issued and its completion (Unspecified)
system.cpu0.lsq0.loadToUse::190-199                47      0.00%     98.39% # Distribution of cycle latency between the first time a load is issued and its completion (Unspecified)
system.cpu0.lsq0.loadToUse::200-209                54      0.00%     98.39% # Distribution of cycle latency between the first time a load is issued and its completion (Unspecified)
system.cpu0.lsq0.loadToUse::210-219                55      0.00%     98.39% # Distribution of cycle latency between the first time a load is issued and its completion (Unspecified)
system.cpu0.lsq0.loadToUse::220-229                96      0.00%     98.40% # Distribution of cycle latency between the first time a load is issued and its completion (Unspecified)
system.cpu0.lsq0.loadToUse::230-239               100      0.00%     98.40% # Distribution of cycle latency between the first time a load is issued and its completion (Unspecified)
system.cpu0.lsq0.loadToUse::240-249               545      0.02%     98.42% # Distribution of cycle latency between the first time a load is issued and its completion (Unspecified)
system.cpu0.lsq0.loadToUse::250-259                35      0.00%     98.42% # Distribution of cycle latency between the first time a load is issued and its completion (Unspecified)
system.cpu0.lsq0.loadToUse::260-269                39      0.00%     98.42% # Distribution of cycle latency between the first time a load is issued and its completion (Unspecified)
system.cpu0.lsq0.loadToUse::270-279                47      0.00%     98.43% # Distribution of cycle latency between the first time a load is issued and its completion (Unspecified)
system.cpu0.lsq0.loadToUse::280-289                92      0.00%     98.43% # Distribution of cycle latency between the first time a load is issued and its completion (Unspecified)
system.cpu0.lsq0.loadToUse::290-299               133      0.00%     98.43% # Distribution of cycle latency between the first time a load is issued and its completion (Unspecified)
system.cpu0.lsq0.loadToUse::overflows           42511      1.57%    100.00% # Distribution of cycle latency between the first time a load is issued and its completion (Unspecified)
system.cpu0.lsq0.loadToUse::min_value               2                       # Distribution of cycle latency between the first time a load is issued and its completion (Unspecified)
system.cpu0.lsq0.loadToUse::max_value            2823                       # Distribution of cycle latency between the first time a load is issued and its completion (Unspecified)
system.cpu0.lsq0.loadToUse::total             2714507                       # Distribution of cycle latency between the first time a load is issued and its completion (Unspecified)
system.cpu0.mmu.dtb.rdAccesses                2831547                       # TLB accesses on read requests (Count)
system.cpu0.mmu.dtb.wrAccesses                1736011                       # TLB accesses on write requests (Count)
system.cpu0.mmu.dtb.rdMisses                     3124                       # TLB misses on read requests (Count)
system.cpu0.mmu.dtb.wrMisses                      429                       # TLB misses on write requests (Count)
system.cpu0.mmu.dtb.walker.power_state.pwrStateResidencyTicks::UNDEFINED   8119405500                       # Cumulative time (in ticks) in various power states (Tick)
system.cpu0.mmu.itb.rdAccesses                      0                       # TLB accesses on read requests (Count)
system.cpu0.mmu.itb.wrAccesses                 882783                       # TLB accesses on write requests (Count)
system.cpu0.mmu.itb.rdMisses                        0                       # TLB misses on read requests (Count)
system.cpu0.mmu.itb.wrMisses                     2875                       # TLB misses on write requests (Count)
system.cpu0.mmu.itb.walker.power_state.pwrStateResidencyTicks::UNDEFINED   8119405500                       # Cumulative time (in ticks) in various power states (Tick)
system.cpu0.power_state.pwrStateResidencyTicks::ON   8119405500                       # Cumulative time (in ticks) in various power states (Tick)
system.cpu0.rename.squashCycles                 38327                       # Number of cycles rename is squashing (Cycle)
system.cpu0.rename.idleCycles                 1773927                       # Number of cycles rename is idle (Cycle)
system.cpu0.rename.blockCycles                7134613                       # Number of cycles rename is blocking (Cycle)
system.cpu0.rename.serializeStallCycles         21375                       # count of cycles rename stalled for serializing inst (Cycle)
system.cpu0.rename.runCycles                  2574719                       # Number of cycles rename is running (Cycle)
system.cpu0.rename.unblockCycles              3563624                       # Number of cycles rename is unblocking (Cycle)
system.cpu0.rename.renamedInsts              23046381                       # Number of instructions processed by rename (Count)
system.cpu0.rename.ROBFullEvents               111128                       # Number of times rename has blocked due to ROB full (Count)
system.cpu0.rename.IQFullEvents               1543455                       # Number of times rename has blocked due to IQ full (Count)
system.cpu0.rename.LQFullEvents                162002                       # Number of times rename has blocked due to LQ full (Count)
system.cpu0.rename.SQFullEvents               1689276                       # Number of times rename has blocked due to SQ full (Count)
system.cpu0.rename.fullRegistersEvents           3212                       # Number of times there has been no free registers (Count)
system.cpu0.rename.renamedOperands           50178983                       # Number of destination operands rename has renamed (Count)
system.cpu0.rename.lookups                   91047883                       # Number of register rename lookups that rename has made (Count)
system.cpu0.rename.intLookups                36640923                       # Number of integer rename lookups (Count)
system.cpu0.rename.fpLookups                   186391                       # Number of floating rename lookups (Count)
system.cpu0.rename.committedMaps             46785986                       # Number of HB maps that are committed (Count)
system.cpu0.rename.undoneMaps                 3392542                       # Number of HB maps that are undone due to squashing (Count)
system.cpu0.rename.serializing                    757                       # count of serializing insts renamed (Count)
system.cpu0.rename.tempSerializing                742                       # count of temporary serializing insts renamed (Count)
system.cpu0.rename.skidInsts                  6936752                       # count of insts added to the skid buffer (Count)
system.cpu0.rob.reads                        36917909                       # The number of ROB reads (Count)
system.cpu0.rob.writes                       45755372                       # The number of ROB writes (Count)
system.cpu0.thread_0.numInsts                 9287647                       # Number of Instructions committed (Count)
system.cpu0.thread_0.numOps                  21435345                       # Number of Ops committed (Count)
system.cpu0.thread_0.numMemRefs                     0                       # Number of Memory References (Count)
system.cpu0.workload.numSyscalls                   62                       # Number of system calls (Count)
system.cpu1.numCycles                        16238812                       # Number of cpu cycles simulated (Cycle)
system.cpu1.numWorkItemsStarted                     0                       # Number of work items this cpu started (Count)
system.cpu1.numWorkItemsCompleted                   0                       # Number of work items this cpu completed (Count)
system.cpu1.instsAdded                       23917126                       # Number of instructions added to the IQ (excludes non-spec) (Count)
system.cpu1.nonSpecInstsAdded                     868                       # Number of non-speculative instructions added to the IQ (Count)
system.cpu1.instsIssued                      23398893                       # Number of instructions issued (Count)
system.cpu1.squashedInstsIssued                  2841                       # Number of squashed instructions issued (Count)
system.cpu1.squashedInstsExamined             1372416                       # Number of squashed instructions iterated over during squash; mainly for profiling (Count)
system.cpu1.squashedOperandsExamined          3058759                       # Number of squashed operands that are examined and possibly removed from graph (Count)
system.cpu1.squashedNonSpecRemoved                135                       # Number of squashed non-spec instructions that were removed (Count)
system.cpu1.numIssuedDist::samples           15166736                       # Number of insts issued each cycle (Count)
system.cpu1.numIssuedDist::mean              1.542777                       # Number of insts issued each cycle (Count)
system.cpu1.numIssuedDist::stdev             2.005861                       # Number of insts issued each cycle (Count)
system.cpu1.numIssuedDist::underflows               0      0.00%      0.00% # Number of insts issued each cycle (Count)
system.cpu1.numIssuedDist::0                  8101810     53.42%     53.42% # Number of insts issued each cycle (Count)
system.cpu1.numIssuedDist::1                  1197855      7.90%     61.32% # Number of insts issued each cycle (Count)
system.cpu1.numIssuedDist::2                  1097495      7.24%     68.55% # Number of insts issued each cycle (Count)
system.cpu1.numIssuedDist::3                  1858983     12.26%     80.81% # Number of insts issued each cycle (Count)
system.cpu1.numIssuedDist::4                  1236010      8.15%     88.96% # Number of insts issued each cycle (Count)
system.cpu1.numIssuedDist::5                   945387      6.23%     95.19% # Number of insts issued each cycle (Count)
system.cpu1.numIssuedDist::6                   427953      2.82%     98.01% # Number of insts issued each cycle (Count)
system.cpu1.numIssuedDist::7                   219538      1.45%     99.46% # Number of insts issued each cycle (Count)
system.cpu1.numIssuedDist::8                    81705      0.54%    100.00% # Number of insts issued each cycle (Count)
system.cpu1.numIssuedDist::overflows                0      0.00%    100.00% # Number of insts issued each cycle (Count)
system.cpu1.numIssuedDist::min_value                0                       # Number of insts issued each cycle (Count)
system.cpu1.numIssuedDist::max_value                8                       # Number of insts issued each cycle (Count)
system.cpu1.numIssuedDist::total             15166736                       # Number of insts issued each cycle (Count)
system.cpu1.statFuBusy::No_OpClass                  0      0.00%      0.00% # attempts to use FU when none available (Count)
system.cpu1.statFuBusy::IntAlu                  79960     74.67%     74.67% # attempts to use FU when none available (Count)
system.cpu1.statFuBusy::IntMult                     0      0.00%     74.67% # attempts to use FU when none available (Count)
system.cpu1.statFuBusy::IntDiv                      0      0.00%     74.67% # attempts to use FU when none available (Count)
system.cpu1.statFuBusy::FloatAdd                    0      0.00%     74.67% # attempts to use FU when none available (Count)
system.cpu1.statFuBusy::FloatCmp                    0      0.00%     74.67% # attempts to use FU when none available (Count)
system.cpu1.statFuBusy::FloatCvt                    0      0.00%     74.67% # attempts to use FU when none available (Count)
system.cpu1.statFuBusy::FloatMult                   0      0.00%     74.67% # attempts to use FU when none available (Count)
system.cpu1.statFuBusy::FloatMultAcc                0      0.00%     74.67% # attempts to use FU when none available (Count)
system.cpu1.statFuBusy::FloatDiv                    0      0.00%     74.67% # attempts to use FU when none available (Count)
system.cpu1.statFuBusy::FloatMisc                   0      0.00%     74.67% # attempts to use FU when none available (Count)
system.cpu1.statFuBusy::FloatSqrt                   0      0.00%     74.67% # attempts to use FU when none available (Count)
system.cpu1.statFuBusy::SimdAdd                     0      0.00%     74.67% # attempts to use FU when none available (Count)
system.cpu1.statFuBusy::SimdAddAcc                  0      0.00%     74.67% # attempts to use FU when none available (Count)
system.cpu1.statFuBusy::SimdAlu                   119      0.11%     74.78% # attempts to use FU when none available (Count)
system.cpu1.statFuBusy::SimdCmp                     0      0.00%     74.78% # attempts to use FU when none available (Count)
system.cpu1.statFuBusy::SimdCvt                   134      0.13%     74.91% # attempts to use FU when none available (Count)
system.cpu1.statFuBusy::SimdMisc                    0      0.00%     74.91% # attempts to use FU when none available (Count)
system.cpu1.statFuBusy::SimdMult                    0      0.00%     74.91% # attempts to use FU when none available (Count)
system.cpu1.statFuBusy::SimdMultAcc                 0      0.00%     74.91% # attempts to use FU when none available (Count)
system.cpu1.statFuBusy::SimdShift                 144      0.13%     75.04% # attempts to use FU when none available (Count)
system.cpu1.statFuBusy::SimdShiftAcc                0      0.00%     75.04% # attempts to use FU when none available (Count)
system.cpu1.statFuBusy::SimdDiv                     0      0.00%     75.04% # attempts to use FU when none available (Count)
system.cpu1.statFuBusy::SimdSqrt                    0      0.00%     75.04% # attempts to use FU when none available (Count)
system.cpu1.statFuBusy::SimdFloatAdd                0      0.00%     75.04% # attempts to use FU when none available (Count)
system.cpu1.statFuBusy::SimdFloatAlu                0      0.00%     75.04% # attempts to use FU when none available (Count)
system.cpu1.statFuBusy::SimdFloatCmp                0      0.00%     75.04% # attempts to use FU when none available (Count)
system.cpu1.statFuBusy::SimdFloatCvt                0      0.00%     75.04% # attempts to use FU when none available (Count)
system.cpu1.statFuBusy::SimdFloatDiv                0      0.00%     75.04% # attempts to use FU when none available (Count)
system.cpu1.statFuBusy::SimdFloatMisc               0      0.00%     75.04% # attempts to use FU when none available (Count)
system.cpu1.statFuBusy::SimdFloatMult               0      0.00%     75.04% # attempts to use FU when none available (Count)
system.cpu1.statFuBusy::SimdFloatMultAcc            0      0.00%     75.04% # attempts to use FU when none available (Count)
system.cpu1.statFuBusy::SimdFloatSqrt               0      0.00%     75.04% # attempts to use FU when none available (Count)
system.cpu1.statFuBusy::SimdReduceAdd               0      0.00%     75.04% # attempts to use FU when none available (Count)
system.cpu1.statFuBusy::SimdReduceAlu               0      0.00%     75.04% # attempts to use FU when none available (Count)
system.cpu1.statFuBusy::SimdReduceCmp               0      0.00%     75.04% # attempts to use FU when none available (Count)
system.cpu1.statFuBusy::SimdFloatReduceAdd            0      0.00%     75.04% # attempts to use FU when none available (Count)
system.cpu1.statFuBusy::SimdFloatReduceCmp            0      0.00%     75.04% # attempts to use FU when none available (Count)
system.cpu1.statFuBusy::SimdAes                     0      0.00%     75.04% # attempts to use FU when none available (Count)
system.cpu1.statFuBusy::SimdAesMix                  0      0.00%     75.04% # attempts to use FU when none available (Count)
system.cpu1.statFuBusy::SimdSha1Hash                0      0.00%     75.04% # attempts to use FU when none available (Count)
system.cpu1.statFuBusy::SimdSha1Hash2               0      0.00%     75.04% # attempts to use FU when none available (Count)
system.cpu1.statFuBusy::SimdSha256Hash              0      0.00%     75.04% # attempts to use FU when none available (Count)
system.cpu1.statFuBusy::SimdSha256Hash2             0      0.00%     75.04% # attempts to use FU when none available (Count)
system.cpu1.statFuBusy::SimdShaSigma2               0      0.00%     75.04% # attempts to use FU when none available (Count)
system.cpu1.statFuBusy::SimdShaSigma3               0      0.00%     75.04% # attempts to use FU when none available (Count)
system.cpu1.statFuBusy::SimdPredAlu                 0      0.00%     75.04% # attempts to use FU when none available (Count)
system.cpu1.statFuBusy::MemRead                 12764     11.92%     86.96% # attempts to use FU when none available (Count)
system.cpu1.statFuBusy::MemWrite                12154     11.35%     98.31% # attempts to use FU when none available (Count)
system.cpu1.statFuBusy::FloatMemRead             1363      1.27%     99.58% # attempts to use FU when none available (Count)
system.cpu1.statFuBusy::FloatMemWrite             448      0.42%    100.00% # attempts to use FU when none available (Count)
system.cpu1.statFuBusy::IprAccess                   0      0.00%    100.00% # attempts to use FU when none available (Count)
system.cpu1.statFuBusy::InstPrefetch                0      0.00%    100.00% # attempts to use FU when none available (Count)
system.cpu1.statIssuedInstType_0::No_OpClass        36345      0.16%      0.16% # Number of instructions issued per FU type, per thread (Count)
system.cpu1.statIssuedInstType_0::IntAlu     18441346     78.81%     78.97% # Number of instructions issued per FU type, per thread (Count)
system.cpu1.statIssuedInstType_0::IntMult           37      0.00%     78.97% # Number of instructions issued per FU type, per thread (Count)
system.cpu1.statIssuedInstType_0::IntDiv        38133      0.16%     79.13% # Number of instructions issued per FU type, per thread (Count)
system.cpu1.statIssuedInstType_0::FloatAdd         4213      0.02%     79.15% # Number of instructions issued per FU type, per thread (Count)
system.cpu1.statIssuedInstType_0::FloatCmp            0      0.00%     79.15% # Number of instructions issued per FU type, per thread (Count)
system.cpu1.statIssuedInstType_0::FloatCvt         1452      0.01%     79.16% # Number of instructions issued per FU type, per thread (Count)
system.cpu1.statIssuedInstType_0::FloatMult            0      0.00%     79.16% # Number of instructions issued per FU type, per thread (Count)
system.cpu1.statIssuedInstType_0::FloatMultAcc            0      0.00%     79.16% # Number of instructions issued per FU type, per thread (Count)
system.cpu1.statIssuedInstType_0::FloatDiv            0      0.00%     79.16% # Number of instructions issued per FU type, per thread (Count)
system.cpu1.statIssuedInstType_0::FloatMisc            0      0.00%     79.16% # Number of instructions issued per FU type, per thread (Count)
system.cpu1.statIssuedInstType_0::FloatSqrt            0      0.00%     79.16% # Number of instructions issued per FU type, per thread (Count)
system.cpu1.statIssuedInstType_0::SimdAdd         8242      0.04%     79.19% # Number of instructions issued per FU type, per thread (Count)
system.cpu1.statIssuedInstType_0::SimdAddAcc            0      0.00%     79.19% # Number of instructions issued per FU type, per thread (Count)
system.cpu1.statIssuedInstType_0::SimdAlu        16757      0.07%     79.26% # Number of instructions issued per FU type, per thread (Count)
system.cpu1.statIssuedInstType_0::SimdCmp            0      0.00%     79.26% # Number of instructions issued per FU type, per thread (Count)
system.cpu1.statIssuedInstType_0::SimdCvt        18400      0.08%     79.34% # Number of instructions issued per FU type, per thread (Count)
system.cpu1.statIssuedInstType_0::SimdMisc         8635      0.04%     79.38% # Number of instructions issued per FU type, per thread (Count)
system.cpu1.statIssuedInstType_0::SimdMult            0      0.00%     79.38% # Number of instructions issued per FU type, per thread (Count)
system.cpu1.statIssuedInstType_0::SimdMultAcc            0      0.00%     79.38% # Number of instructions issued per FU type, per thread (Count)
system.cpu1.statIssuedInstType_0::SimdShift         2470      0.01%     79.39% # Number of instructions issued per FU type, per thread (Count)
system.cpu1.statIssuedInstType_0::SimdShiftAcc            0      0.00%     79.39% # Number of instructions issued per FU type, per thread (Count)
system.cpu1.statIssuedInstType_0::SimdDiv            0      0.00%     79.39% # Number of instructions issued per FU type, per thread (Count)
system.cpu1.statIssuedInstType_0::SimdSqrt            0      0.00%     79.39% # Number of instructions issued per FU type, per thread (Count)
system.cpu1.statIssuedInstType_0::SimdFloatAdd            0      0.00%     79.39% # Number of instructions issued per FU type, per thread (Count)
system.cpu1.statIssuedInstType_0::SimdFloatAlu            0      0.00%     79.39% # Number of instructions issued per FU type, per thread (Count)
system.cpu1.statIssuedInstType_0::SimdFloatCmp            0      0.00%     79.39% # Number of instructions issued per FU type, per thread (Count)
system.cpu1.statIssuedInstType_0::SimdFloatCvt            0      0.00%     79.39% # Number of instructions issued per FU type, per thread (Count)
system.cpu1.statIssuedInstType_0::SimdFloatDiv            0      0.00%     79.39% # Number of instructions issued per FU type, per thread (Count)
system.cpu1.statIssuedInstType_0::SimdFloatMisc            0      0.00%     79.39% # Number of instructions issued per FU type, per thread (Count)
system.cpu1.statIssuedInstType_0::SimdFloatMult            0      0.00%     79.39% # Number of instructions issued per FU type, per thread (Count)
system.cpu1.statIssuedInstType_0::SimdFloatMultAcc            0      0.00%     79.39% # Number of instructions issued per FU type, per thread (Count)
system.cpu1.statIssuedInstType_0::SimdFloatSqrt            0      0.00%     79.39% # Number of instructions issued per FU type, per thread (Count)
system.cpu1.statIssuedInstType_0::SimdReduceAdd            0      0.00%     79.39% # Number of instructions issued per FU type, per thread (Count)
system.cpu1.statIssuedInstType_0::SimdReduceAlu            0      0.00%     79.39% # Number of instructions issued per FU type, per thread (Count)
system.cpu1.statIssuedInstType_0::SimdReduceCmp            0      0.00%     79.39% # Number of instructions issued per FU type, per thread (Count)
system.cpu1.statIssuedInstType_0::SimdFloatReduceAdd            0      0.00%     79.39% # Number of instructions issued per FU type, per thread (Count)
system.cpu1.statIssuedInstType_0::SimdFloatReduceCmp            0      0.00%     79.39% # Number of instructions issued per FU type, per thread (Count)
system.cpu1.statIssuedInstType_0::SimdAes            0      0.00%     79.39% # Number of instructions issued per FU type, per thread (Count)
system.cpu1.statIssuedInstType_0::SimdAesMix            0      0.00%     79.39% # Number of instructions issued per FU type, per thread (Count)
system.cpu1.statIssuedInstType_0::SimdSha1Hash            0      0.00%     79.39% # Number of instructions issued per FU type, per thread (Count)
system.cpu1.statIssuedInstType_0::SimdSha1Hash2            0      0.00%     79.39% # Number of instructions issued per FU type, per thread (Count)
system.cpu1.statIssuedInstType_0::SimdSha256Hash            0      0.00%     79.39% # Number of instructions issued per FU type, per thread (Count)
system.cpu1.statIssuedInstType_0::SimdSha256Hash2            0      0.00%     79.39% # Number of instructions issued per FU type, per thread (Count)
system.cpu1.statIssuedInstType_0::SimdShaSigma2            0      0.00%     79.39% # Number of instructions issued per FU type, per thread (Count)
system.cpu1.statIssuedInstType_0::SimdShaSigma3            0      0.00%     79.39% # Number of instructions issued per FU type, per thread (Count)
system.cpu1.statIssuedInstType_0::SimdPredAlu            0      0.00%     79.39% # Number of instructions issued per FU type, per thread (Count)
system.cpu1.statIssuedInstType_0::MemRead      2955382     12.63%     92.02% # Number of instructions issued per FU type, per thread (Count)
system.cpu1.statIssuedInstType_0::MemWrite      1816825      7.76%     99.78% # Number of instructions issued per FU type, per thread (Count)
system.cpu1.statIssuedInstType_0::FloatMemRead        32985      0.14%     99.92% # Number of instructions issued per FU type, per thread (Count)
system.cpu1.statIssuedInstType_0::FloatMemWrite        17671      0.08%    100.00% # Number of instructions issued per FU type, per thread (Count)
system.cpu1.statIssuedInstType_0::IprAccess            0      0.00%    100.00% # Number of instructions issued per FU type, per thread (Count)
system.cpu1.statIssuedInstType_0::InstPrefetch            0      0.00%    100.00% # Number of instructions issued per FU type, per thread (Count)
system.cpu1.statIssuedInstType_0::total      23398893                       # Number of instructions issued per FU type, per thread (Count)
system.cpu1.issueRate                        1.440924                       # Inst issue rate ((Count/Cycle))
system.cpu1.fuBusy                             107086                       # FU busy when requested (Count)
system.cpu1.fuBusyRate                       0.004577                       # FU busy rate (busy events/executed inst) ((Count/Count))
system.cpu1.intInstQueueReads                61848028                       # Number of integer instruction queue reads (Count)
system.cpu1.intInstQueueWrites               25117712                       # Number of integer instruction queue writes (Count)
system.cpu1.intInstQueueWakeupAccesses       23188046                       # Number of integer instruction queue wakeup accesses (Count)
system.cpu1.fpInstQueueReads                   226420                       # Number of floating instruction queue reads (Count)
system.cpu1.fpInstQueueWrites                  172965                       # Number of floating instruction queue writes (Count)
system.cpu1.fpInstQueueWakeupAccesses          108129                       # Number of floating instruction queue wakeup accesses (Count)
system.cpu1.vecInstQueueReads                       0                       # Number of vector instruction queue reads (Count)
system.cpu1.vecInstQueueWrites                      0                       # Number of vector instruction queue writes (Count)
system.cpu1.vecInstQueueWakeupAccesses              0                       # Number of vector instruction queue wakeup accesses (Count)
system.cpu1.intAluAccesses                   23355473                       # Number of integer alu accesses (Count)
system.cpu1.fpAluAccesses                      114161                       # Number of floating point alu accesses (Count)
system.cpu1.vecAluAccesses                          0                       # Number of vector alu accesses (Count)
system.cpu1.numInsts                         23336731                       # Number of executed instructions (Count)
system.cpu1.numLoadInsts                      2976213                       # Number of load instructions executed (Count)
system.cpu1.numSquashedInsts                    62161                       # Number of squashed instructions skipped in execute (Count)
system.cpu1.numSwp                                  0                       # Number of swp insts executed (Count)
system.cpu1.numNop                                  0                       # Number of nop insts executed (Count)
system.cpu1.numRefs                           4808574                       # Number of memory reference insts executed (Count)
system.cpu1.numBranches                       1911875                       # Number of branches executed (Count)
[...]
system.ruby.network.ext_out_link_utilization      4182404                       (Unspecified)
system.ruby.network.flit_network_latency |104599884000                       |207387875500                       | 28819968000                       (Unspecified)
system.ruby.network.flit_queueing_latency |  2112350000                       |  1948025000                       |   148005000                       (Unspecified)
system.ruby.network.flits_injected       |      991351     23.70%     23.70% |     2895043     69.22%     92.92% |      296010      7.08%    100.00% (Unspecified)
system.ruby.network.flits_injected::total      4182404                       (Unspecified)
system.ruby.network.flits_received       |      991351     23.70%     23.70% |     2895043     69.22%     92.92% |      296010      7.08%    100.00% (Unspecified)
system.ruby.network.flits_received::total      4182404                       (Unspecified)
system.ruby.network.int_link_utilization     12636557                       (Unspecified)
system.ruby.network.packet_network_latency | 78557537000                       | 68670584500                       | 28819968000                       (Unspecified)
system.ruby.network.packet_queueing_latency |  1732392000                       |   520027000                       |   148005000                       (Unspecified)
system.ruby.network.packets_injected     |      809291     42.27%     42.27% |      809291     42.27%     84.54% |      296010     15.46%    100.00% (Unspecified)
system.ruby.network.packets_injected::total      1914592                       (Unspecified)
system.ruby.network.packets_received     |      809291     42.27%     42.27% |      809291     42.27%     84.54% |      296010     15.46%    100.00% (Unspecified)
system.ruby.network.packets_received::total      1914592                       (Unspecified)
system.ruby.network.routers00.Var_1                 0                       (Unspecified)
system.ruby.network.routers00.Var_2                 0                       (Unspecified)
system.ruby.network.routers00.Var_3                 0                       (Unspecified)
system.ruby.network.routers00.all_counts            0                       (Unspecified)
system.ruby.network.routers00.buffer_reads       746989                       (Unspecified)
system.ruby.network.routers00.buffer_writes       746989                       (Unspecified)
system.ruby.network.routers00.crossbar_activity       746989                       (Unspecified)
system.ruby.network.routers00.detour_counts        53377                       (Unspecified)
system.ruby.network.routers00.regular_var            0                       (Unspecified)
system.ruby.network.routers00.risk_counts            0                       (Unspecified)
system.ruby.network.routers00.sw_input_arbiter_activity       752496                       (Unspecified)
system.ruby.network.routers00.sw_output_arbiter_activity       746989                       (Unspecified)
system.ruby.network.routers01.Var_1                 0                       (Unspecified)
system.ruby.network.routers01.Var_2                 0                       (Unspecified)
system.ruby.network.routers01.Var_3                 0                       (Unspecified)
system.ruby.network.routers01.all_counts            0                       (Unspecified)
system.ruby.network.routers01.buffer_reads      1070431                       (Unspecified)
system.ruby.network.routers01.buffer_writes      1070431                       (Unspecified)
system.ruby.network.routers01.crossbar_activity      1070431                       (Unspecified)
system.ruby.network.routers01.detour_counts        53516                       (Unspecified)
system.ruby.network.routers01.regular_var            0                       (Unspecified)
system.ruby.network.routers01.risk_counts            0                       (Unspecified)
system.ruby.network.routers01.sw_input_arbiter_activity      1082663                       (Unspecified)
system.ruby.network.routers01.sw_output_arbiter_activity      1070431                       (Unspecified)
system.ruby.network.routers02.Var_1                 0                       (Unspecified)
system.ruby.network.routers02.Var_2                 0                       (Unspecified)
system.ruby.network.routers02.Var_3                 0                       (Unspecified)
system.ruby.network.routers02.all_counts            0                       (Unspecified)
system.ruby.network.routers02.buffer_reads      1074068                       (Unspecified)
system.ruby.network.routers02.buffer_writes      1074068                       (Unspecified)
system.ruby.network.routers02.crossbar_activity      1074068                       (Unspecified)
system.ruby.network.routers02.detour_counts        53367                       (Unspecified)
system.ruby.network.routers02.regular_var            0                       (Unspecified)
system.ruby.network.routers02.risk_counts            0                       (Unspecified)
system.ruby.network.routers02.sw_input_arbiter_activity      1086618                       (Unspecified)
system.ruby.network.routers02.sw_output_arbiter_activity      1074068                       (Unspecified)
system.ruby.network.routers03.Var_1                 0                       (Unspecified)
system.ruby.network.routers03.Var_2                 0                       (Unspecified)
system.ruby.network.routers03.Var_3                 0                       (Unspecified)
system.ruby.network.routers03.all_counts            0                       (Unspecified)
system.ruby.network.routers03.buffer_reads       739059                       (Unspecified)
system.ruby.network.routers03.buffer_writes       739059                       (Unspecified)
system.ruby.network.routers03.crossbar_activity       739059                       (Unspecified)
system.ruby.network.routers03.detour_counts        53434                       (Unspecified)
system.ruby.network.routers03.regular_var            0                       (Unspecified)
system.ruby.network.routers03.risk_counts            0                       (Unspecified)
system.ruby.network.routers03.sw_input_arbiter_activity       744434                       (Unspecified)
system.ruby.network.routers03.sw_output_arbiter_activity       739059                       (Unspecified)
system.ruby.network.routers04.Var_1                 0                       (Unspecified)
system.ruby.network.routers04.Var_2                 0                       (Unspecified)
system.ruby.network.routers04.Var_3                 0                       (Unspecified)
system.ruby.network.routers04.all_counts            0                       (Unspecified)
system.ruby.network.routers04.buffer_reads      1044647                       (Unspecified)
system.ruby.network.routers04.buffer_writes      1044647                       (Unspecified)
system.ruby.network.routers04.crossbar_activity      1044647                       (Unspecified)
system.ruby.network.routers04.detour_counts        53427                       (Unspecified)
system.ruby.network.routers04.regular_var            0                       (Unspecified)
system.ruby.network.routers04.risk_counts            0                       (Unspecified)
system.ruby.network.routers04.sw_input_arbiter_activity      1055947                       (Unspecified)
system.ruby.network.routers04.sw_output_arbiter_activity      1044647                       (Unspecified)
system.ruby.network.routers05.Var_1                 0                       (Unspecified)
system.ruby.network.routers05.Var_2                 0                       (Unspecified)
system.ruby.network.routers05.Var_3                 0                       (Unspecified)
system.ruby.network.routers05.all_counts            0                       (Unspecified)
system.ruby.network.routers05.buffer_reads      1367780                       (Unspecified)
system.ruby.network.routers05.buffer_writes      1367780                       (Unspecified)
system.ruby.network.routers05.crossbar_activity      1367780                       (Unspecified)
system.ruby.network.routers05.detour_counts        53452                       (Unspecified)
system.ruby.network.routers05.regular_var            0                       (Unspecified)
system.ruby.network.routers05.risk_counts            0                       (Unspecified)
system.ruby.network.routers05.sw_input_arbiter_activity      1386029                       (Unspecified)
system.ruby.network.routers05.sw_output_arbiter_activity      1367780                       (Unspecified)
system.ruby.network.routers06.Var_1                 0                       (Unspecified)
system.ruby.network.routers06.Var_2                 0                       (Unspecified)
system.ruby.network.routers06.Var_3                 0                       (Unspecified)
system.ruby.network.routers06.all_counts            0                       (Unspecified)
system.ruby.network.routers06.buffer_reads      1367213                       (Unspecified)
system.ruby.network.routers06.buffer_writes      1367213                       (Unspecified)
system.ruby.network.routers06.crossbar_activity      1367213                       (Unspecified)
system.ruby.network.routers06.detour_counts        53356                       (Unspecified)
system.ruby.network.routers06.regular_var            0                       (Unspecified)
system.ruby.network.routers06.risk_counts            0                       (Unspecified)
system.ruby.network.routers06.sw_input_arbiter_activity      1385686                       (Unspecified)
system.ruby.network.routers06.sw_output_arbiter_activity      1367213                       (Unspecified)
system.ruby.network.routers07.Var_1                 0                       (Unspecified)
system.ruby.network.routers07.Var_2                 0                       (Unspecified)
system.ruby.network.routers07.Var_3                 0                       (Unspecified)
system.ruby.network.routers07.all_counts            0                       (Unspecified)
system.ruby.network.routers07.buffer_reads      1032286                       (Unspecified)
system.ruby.network.routers07.buffer_writes      1032286                       (Unspecified)
system.ruby.network.routers07.crossbar_activity      1032286                       (Unspecified)
system.ruby.network.routers07.detour_counts        53536                       (Unspecified)
system.ruby.network.routers07.regular_var            0                       (Unspecified)
system.ruby.network.routers07.risk_counts            0                       (Unspecified)
system.ruby.network.routers07.sw_input_arbiter_activity      1043422                       (Unspecified)
system.ruby.network.routers07.sw_output_arbiter_activity      1032286                       (Unspecified)
system.ruby.network.routers08.Var_1                 0                       (Unspecified)
system.ruby.network.routers08.Var_2                 0                       (Unspecified)
system.ruby.network.routers08.Var_3                 0                       (Unspecified)
system.ruby.network.routers08.all_counts            0                       (Unspecified)
system.ruby.network.routers08.buffer_reads      1040946                       (Unspecified)
system.ruby.network.routers08.buffer_writes      1040946                       (Unspecified)
system.ruby.network.routers08.crossbar_activity      1040946                       (Unspecified)
system.ruby.network.routers08.detour_counts        53430                       (Unspecified)
system.ruby.network.routers08.regular_var            0                       (Unspecified)
system.ruby.network.routers08.risk_counts            0                       (Unspecified)
system.ruby.network.routers08.sw_input_arbiter_activity      1052265                       (Unspecified)
system.ruby.network.routers08.sw_output_arbiter_activity      1040946                       (Unspecified)
system.ruby.network.routers09.Var_1                 0                       (Unspecified)
system.ruby.network.routers09.Var_2                 0                       (Unspecified)
system.ruby.network.routers09.Var_3                 0                       (Unspecified)
system.ruby.network.routers09.all_counts            0                       (Unspecified)
system.ruby.network.routers09.buffer_reads      1365996                       (Unspecified)
system.ruby.network.routers09.buffer_writes      1365996                       (Unspecified)
system.ruby.network.routers09.crossbar_activity      1365996                       (Unspecified)
system.ruby.network.routers09.detour_counts        53295                       (Unspecified)
system.ruby.network.routers09.regular_var            0                       (Unspecified)
system.ruby.network.routers09.risk_counts            0                       (Unspecified)
system.ruby.network.routers09.sw_input_arbiter_activity      1384087                       (Unspecified)
system.ruby.network.routers09.sw_output_arbiter_activity      1365996                       (Unspecified)
system.ruby.network.routers10.Var_1                 0                       (Unspecified)
system.ruby.network.routers10.Var_2                 0                       (Unspecified)
system.ruby.network.routers10.Var_3                 0                       (Unspecified)
system.ruby.network.routers10.all_counts            0                       (Unspecified)
system.ruby.network.routers10.buffer_reads      1361183                       (Unspecified)
system.ruby.network.routers10.buffer_writes      1361183                       (Unspecified)
system.ruby.network.routers10.crossbar_activity      1361183                       (Unspecified)
system.ruby.network.routers10.detour_counts        53372                       (Unspecified)
system.ruby.network.routers10.regular_var            0                       (Unspecified)
system.ruby.network.routers10.risk_counts            0                       (Unspecified)
system.ruby.network.routers10.sw_input_arbiter_activity      1379053                       (Unspecified)
system.ruby.network.routers10.sw_output_arbiter_activity      1361183                       (Unspecified)
system.ruby.network.routers11.Var_1                 0                       (Unspecified)
system.ruby.network.routers11.Var_2                 0                       (Unspecified)
system.ruby.network.routers11.Var_3                 0                       (Unspecified)
system.ruby.network.routers11.all_counts            0                       (Unspecified)
system.ruby.network.routers11.buffer_reads      1027250                       (Unspecified)
system.ruby.network.routers11.buffer_writes      1027250                       (Unspecified)
system.ruby.network.routers11.crossbar_activity      1027250                       (Unspecified)
system.ruby.network.routers11.detour_counts        53573                       (Unspecified)
system.ruby.network.routers11.regular_var            0                       (Unspecified)
system.ruby.network.routers11.risk_counts            0                       (Unspecified)
system.ruby.network.routers11.sw_input_arbiter_activity      1038599                       (Unspecified)
system.ruby.network.routers11.sw_output_arbiter_activity      1027250                       (Unspecified)
system.ruby.network.routers12.Var_1                 0                       (Unspecified)
system.ruby.network.routers12.Var_2                 0                       (Unspecified)
system.ruby.network.routers12.Var_3                 0                       (Unspecified)
system.ruby.network.routers12.all_counts            0                       (Unspecified)
system.ruby.network.routers12.buffer_reads       734849                       (Unspecified)
system.ruby.network.routers12.buffer_writes       734849                       (Unspecified)
system.ruby.network.routers12.crossbar_activity       734849                       (Unspecified)
system.ruby.network.routers12.detour_counts        53481                       (Unspecified)
system.ruby.network.routers12.regular_var            0                       (Unspecified)
system.ruby.network.routers12.risk_counts            0                       (Unspecified)
system.ruby.network.routers12.sw_input_arbiter_activity       740379                       (Unspecified)
system.ruby.network.routers12.sw_output_arbiter_activity       734849                       (Unspecified)
system.ruby.network.routers13.Var_1                 0                       (Unspecified)
system.ruby.network.routers13.Var_2                 0                       (Unspecified)
system.ruby.network.routers13.Var_3                 0                       (Unspecified)
system.ruby.network.routers13.all_counts            0                       (Unspecified)
system.ruby.network.routers13.buffer_reads      1060597                       (Unspecified)
system.ruby.network.routers13.buffer_writes      1060597                       (Unspecified)
system.ruby.network.routers13.crossbar_activity      1060597                       (Unspecified)
system.ruby.network.routers13.detour_counts        53419                       (Unspecified)
system.ruby.network.routers13.regular_var            0                       (Unspecified)
system.ruby.network.routers13.risk_counts            0                       (Unspecified)
system.ruby.network.routers13.sw_input_arbiter_activity      1072434                       (Unspecified)
system.ruby.network.routers13.sw_output_arbiter_activity      1060597                       (Unspecified)
system.ruby.network.routers14.Var_1                 0                       (Unspecified)
system.ruby.network.routers14.Var_2                 0                       (Unspecified)
system.ruby.network.routers14.Var_3                 0                       (Unspecified)
system.ruby.network.routers14.all_counts            0                       (Unspecified)
system.ruby.network.routers14.buffer_reads      1055629                       (Unspecified)
system.ruby.network.routers14.buffer_writes      1055629                       (Unspecified)
system.ruby.network.routers14.crossbar_activity      1055629                       (Unspecified)
system.ruby.network.routers14.detour_counts        53555                       (Unspecified)
system.ruby.network.routers14.regular_var            0                       (Unspecified)
system.ruby.network.routers14.risk_counts            0                       (Unspecified)
system.ruby.network.routers14.sw_input_arbiter_activity      1067843                       (Unspecified)
system.ruby.network.routers14.sw_output_arbiter_activity      1055629                       (Unspecified)
system.ruby.network.routers15.Var_1                 0                       (Unspecified)
system.ruby.network.routers15.Var_2                 0                       (Unspecified)
system.ruby.network.routers15.Var_3                 0                       (Unspecified)
system.ruby.network.routers15.all_counts            0                       (Unspecified)
system.ruby.network.routers15.buffer_reads       730038                       (Unspecified)
system.ruby.network.routers15.buffer_writes       730038                       (Unspecified)
system.ruby.network.routers15.crossbar_activity       730038                       (Unspecified)
system.ruby.network.routers15.detour_counts        53583                       (Unspecified)
system.ruby.network.routers15.regular_var            0                       (Unspecified)
system.ruby.network.routers15.risk_counts            0                       (Unspecified)
system.ruby.network.routers15.sw_input_arbiter_activity       735532                       (Unspecified)
system.ruby.network.routers15.sw_output_arbiter_activity       730038                       (Unspecified)

---------- End Simulation Statistics   ----------
