
---------- Begin Simulation Statistics ----------
simSeconds                                   0.008221                       # Number of seconds simulated (Second)
simTicks                                   8220777500                       # Number of ticks simulated (Tick)
finalTick                                  8220777500                       # Number of ticks from beginning of simulation (restored from checkpoints and never reset) (Tick)
simFreq                                  1000000000000                       # The number of ticks per simulated second ((Tick/Second))
hostSeconds                                   2236.88                       # Real time elapsed on the host (Second)
hostTickRate                                  3675111                       # The number of ticks simulated per host second (ticks/s) ((Tick/Second))
hostMemory                                   11459364                       # Number of bytes of host memory used (Byte)
simInsts                                    146673904                       # Number of instructions simulated (Count)
simOps                                      338032064                       # Number of ops (including micro ops) simulated (Count)
hostInstRate                                    65571                       # Simulator instruction rate (inst/s) ((Count/Second))
hostOpRate                                     151118                       # Simulator op (including micro ops) rate (op/s) ((Count/Second))
system.clk_domain.clock                          1000                       # Clock period in ticks (Tick)
system.cpu0.numCycles                        16346798                       # Number of cpu cycles simulated (Cycle)
system.cpu0.numWorkItemsStarted                     0                       # Number of work items this cpu started (Count)
system.cpu0.numWorkItemsCompleted                   0                       # Number of work items this cpu completed (Count)
system.cpu0.instsAdded                       22492004                       # Number of instructions added to the IQ (excludes non-spec) (Count)
system.cpu0.nonSpecInstsAdded                    1100                       # Number of non-speculative instructions added to the IQ (Count)
system.cpu0.instsIssued                      21980048                       # Number of instructions issued (Count)
system.cpu0.squashedInstsIssued                  2921                       # Number of squashed instructions issued (Count)
system.cpu0.squashedInstsExamined             1366100                       # Number of squashed instructions iterated over during squash; mainly for profiling (Count)
system.cpu0.squashedOperandsExamined          3033338                       # Number of squashed operands that are examined and possibly removed from graph (Count)
system.cpu0.squashedNonSpecRemoved                247                       # Number of squashed non-spec instructions that were removed (Count)
system.cpu0.numIssuedDist::samples           15106346                       # Number of insts issued each cycle (Count)
system.cpu0.numIssuedDist::mean              1.455021                       # Number of insts issued each cycle (Count)
system.cpu0.numIssuedDist::stdev             1.983650                       # Number of insts issued each cycle (Count)
system.cpu0.numIssuedDist::underflows               0      0.00%      0.00% # Number of insts issued each cycle (Count)
system.cpu0.numIssuedDist::0                  8478157     56.12%     56.12% # Number of insts issued each cycle (Count)
system.cpu0.numIssuedDist::1                  1120753      7.42%     63.54% # Number of insts issued each cycle (Count)
system.cpu0.numIssuedDist::2                  1034523      6.85%     70.39% # Number of insts issued each cycle (Count)
system.cpu0.numIssuedDist::3                  1739461     11.51%     81.91% # Number of insts issued each cycle (Count)
system.cpu0.numIssuedDist::4                  1158651      7.67%     89.58% # Number of insts issued each cycle (Count)
system.cpu0.numIssuedDist::5                   883738      5.85%     95.43% # Number of insts issued each cycle (Count)
system.cpu0.numIssuedDist::6                   398995      2.64%     98.07% # Number of insts issued each cycle (Count)
system.cpu0.numIssuedDist::7                   211942      1.40%     99.47% # Number of insts issued each cycle (Count)
system.cpu0.numIssuedDist::8                    80126      0.53%    100.00% # Number of insts issued each cycle (Count)
system.cpu0.numIssuedDist::overflows                0      0.00%    100.00% # Number of insts issued each cycle (Count)
system.cpu0.numIssuedDist::min_value                0                       # Number of insts issued each cycle (Count)
system.cpu0.numIssuedDist::max_value                8                       # Number of insts issued each cycle (Count)
system.cpu0.numIssuedDist::total             15106346                       # Number of insts issued each cycle (Count)
system.cpu0.statFuBusy::No_OpClass                  0      0.00%      0.00% # attempts to use FU when none available (Count)
system.cpu0.statFuBusy::IntAlu                  77255     74.56%     74.56% # attempts to use FU when none available (Count)
system.cpu0.statFuBusy::IntMult                     0      0.00%     74.56% # attempts to use FU when none available (Count)
system.cpu0.statFuBusy::IntDiv                      0      0.00%     74.56% # attempts to use FU when none available (Count)
system.cpu0.statFuBusy::FloatAdd                    0      0.00%     74.56% # attempts to use FU when none available (Count)
system.cpu0.statFuBusy::FloatCmp                    0      0.00%     74.56% # attempts to use FU when none available (Count)
system.cpu0.statFuBusy::FloatCvt                    2      0.00%     74.56% # attempts to use FU when none available (Count)
system.cpu0.statFuBusy::FloatMult                   0      0.00%     74.56% # attempts to use FU when none available (Count)
system.cpu0.statFuBusy::FloatMultAcc                0      0.00%     74.56% # attempts to use FU when none available (Count)
system.cpu0.statFuBusy::FloatDiv                    0      0.00%     74.56% # attempts to use FU when none available (Count)
system.cpu0.statFuBusy::FloatMisc                   0      0.00%     74.56% # attempts to use FU when none available (Count)
system.cpu0.statFuBusy::FloatSqrt                   0      0.00%     74.56% # attempts to use FU when none available (Count)
system.cpu0.statFuBusy::SimdAdd                     0      0.00%     74.56% # attempts to use FU when none available (Count)
system.cpu0.statFuBusy::SimdAddAcc                  0      0.00%     74.56% # attempts to use FU when none available (Count)
system.cpu0.statFuBusy::SimdAlu                   122      0.12%     74.68% # attempts to use FU when none available (Count)
system.cpu0.statFuBusy::SimdCmp                     0      0.00%     74.68% # attempts to use FU when none available (Count)
system.cpu0.statFuBusy::SimdCvt                   176      0.17%     74.84% # attempts to use FU when none available (Count)
system.cpu0.statFuBusy::SimdMisc                    0      0.00%     74.84% # attempts to use FU when none available (Count)
system.cpu0.statFuBusy::SimdMult                    0      0.00%     74.84% # attempts to use FU when none available (Count)
system.cpu0.statFuBusy::SimdMultAcc                 0      0.00%     74.84% # attempts to use FU when none available (Count)
system.cpu0.statFuBusy::SimdShift                 210      0.20%     75.05% # attempts to use FU when none available (Count)
system.cpu0.statFuBusy::SimdShiftAcc                0      0.00%     75.05% # attempts to use FU when none available (Count)
system.cpu0.statFuBusy::SimdDiv                     0      0.00%     75.05% # attempts to use FU when none available (Count)
system.cpu0.statFuBusy::SimdSqrt                    0      0.00%     75.05% # attempts to use FU when none available (Count)
system.cpu0.statFuBusy::SimdFloatAdd                0      0.00%     75.05% # attempts to use FU when none available (Count)
system.cpu0.statFuBusy::SimdFloatAlu                0      0.00%     75.05% # attempts to use FU when none available (Count)
system.cpu0.statFuBusy::SimdFloatCmp                0      0.00%     75.05% # attempts to use FU when none available (Count)
system.cpu0.statFuBusy::SimdFloatCvt                0      0.00%     75.05% # attempts to use FU when none available (Count)
system.cpu0.statFuBusy::SimdFloatDiv                0      0.00%     75.05% # attempts to use FU when none available (Count)
system.cpu0.statFuBusy::SimdFloatMisc               0      0.00%     75.05% # attempts to use FU when none available (Count)
system.cpu0.statFuBusy::SimdFloatMult               0      0.00%     75.05% # attempts to use FU when none available (Count)
system.cpu0.statFuBusy::SimdFloatMultAcc            0      0.00%     75.05% # attempts to use FU when none available (Count)
system.cpu0.statFuBusy::SimdFloatSqrt               0      0.00%     75.05% # attempts to use FU when none available (Count)
system.cpu0.statFuBusy::SimdReduceAdd               0      0.00%     75.05% # attempts to use FU when none available (Count)
system.cpu0.statFuBusy::SimdReduceAlu               0      0.00%     75.05% # attempts to use FU when none available (Count)
system.cpu0.statFuBusy::SimdReduceCmp               0      0.00%     75.05% # attempts to use FU when none available (Count)
system.cpu0.statFuBusy::SimdFloatReduceAdd            0      0.00%     75.05% # attempts to use FU when none available (Count)
system.cpu0.statFuBusy::SimdFloatReduceCmp            0      0.00%     75.05% # attempts to use FU when none available (Count)
system.cpu0.statFuBusy::SimdAes                     0      0.00%     75.05% # attempts to use FU when none available (Count)
system.cpu0.statFuBusy::SimdAesMix                  0      0.00%     75.05% # attempts to use FU when none available (Count)
system.cpu0.statFuBusy::SimdSha1Hash                0      0.00%     75.05% # attempts to use FU when none available (Count)
system.cpu0.statFuBusy::SimdSha1Hash2               0      0.00%     75.05% # attempts to use FU when none available (Count)
system.cpu0.statFuBusy::SimdSha256Hash              0      0.00%     75.05% # attempts to use FU when none available (Count)
system.cpu0.statFuBusy::SimdSha256Hash2             0      0.00%     75.05% # attempts to use FU when none available (Count)
system.cpu0.statFuBusy::SimdShaSigma2               0      0.00%     75.05% # attempts to use FU when none available (Count)
system.cpu0.statFuBusy::SimdShaSigma3               0      0.00%     75.05% # attempts to use FU when none available (Count)
system.cpu0.statFuBusy::SimdPredAlu                 0      0.00%     75.05% # attempts to use FU when none available (Count)
system.cpu0.statFuBusy::MemRead                 12084     11.66%     86.71% # attempts to use FU when none available (Count)
system.cpu0.statFuBusy::MemWrite                11925     11.51%     98.22% # attempts to use FU when none available (Count)
system.cpu0.statFuBusy::FloatMemRead             1393      1.34%     99.56% # attempts to use FU when none available (Count)
system.cpu0.statFuBusy::FloatMemWrite             454      0.44%    100.00% # attempts to use FU when none available (Count)
system.cpu0.statFuBusy::IprAccess                   0      0.00%    100.00% # attempts to use FU when none available (Count)
system.cpu0.statFuBusy::InstPrefetch                0      0.00%    100.00% # attempts to use FU when none available (Count)
system.cpu0.statIssuedInstType_0::No_OpClass        35313      0.16%      0.16% # Number of instructions issued per FU type, per thread (Count)
system.cpu0.statIssuedInstType_0::IntAlu     17319302     78.80%     78.96% # Number of instructions issued per FU type, per thread (Count)
system.cpu0.statIssuedInstType_0::IntMult           38      0.00%     78.96% # Number of instructions issued per FU type, per thread (Count)
system.cpu0.statIssuedInstType_0::IntDiv        38356      0.17%     79.13% # Number of instructions issued per FU type, per thread (Count)
system.cpu0.statIssuedInstType_0::FloatAdd         4371      0.02%     79.15% # Number of instructions issued per FU type, per thread (Count)
system.cpu0.statIssuedInstType_0::FloatCmp            0      0.00%     79.15% # Number of instructions issued per FU type, per thread (Count)
system.cpu0.statIssuedInstType_0::FloatCvt         1742      0.01%     79.16% # Number of instructions issued per FU type, per thread (Count)
system.cpu0.statIssuedInstType_0::FloatMult            0      0.00%     79.16% # Number of instructions issued per FU type, per thread (Count)
system.cpu0.statIssuedInstType_0::FloatMultAcc            0      0.00%     79.16% # Number of instructions issued per FU type, per thread (Count)
system.cpu0.statIssuedInstType_0::FloatDiv            0      0.00%     79.16% # Number of instructions issued per FU type, per thread (Count)
system.cpu0.statIssuedInstType_0::FloatMisc            0      0.00%     79.16% # Number of instructions issued per FU type, per thread (Count)
system.cpu0.statIssuedInstType_0::FloatSqrt            0      0.00%     79.16% # Number of instructions issued per FU type, per thread (Count)
system.cpu0.statIssuedInstType_0::SimdAdd         8526      0.04%     79.20% # Number of instructions issued per FU type, per thread (Count)
system.cpu0.statIssuedInstType_0::SimdAddAcc            0      0.00%     79.20% # Number of instructions issued per FU type, per thread (Count)
system.cpu0.statIssuedInstType_0::SimdAlu        17280      0.08%     79.28% # Number of instructions issued per FU type, per thread (Count)
system.cpu0.statIssuedInstType_0::SimdCmp            0      0.00%     79.28% # Number of instructions issued per FU type, per thread (Count)
system.cpu0.statIssuedInstType_0::SimdCvt        18932      0.09%     79.36% # Number of instructions issued per FU type, per thread (Count)
system.cpu0.statIssuedInstType_0::SimdMisc         8983      0.04%     79.40% # Number of instructions issued per FU type, per thread (Count)
system.cpu0.statIssuedInstType_0::SimdMult            0      0.00%     79.40% # Number of instructions issued per FU type, per thread (Count)
system.cpu0.statIssuedInstType_0::SimdMultAcc            0      0.00%     79.40% # Number of instructions issued per FU type, per thread (Count)
system.cpu0.statIssuedInstType_0::SimdShift         2991      0.01%     79.42% # Number of instructions issued per FU type, per thread (Count)
system.cpu0.statIssuedInstType_0::SimdShiftAcc            0      0.00%     79.42% # Number of instructions issued per FU type, per thread (Count)
system.cpu0.statIssuedInstType_0::SimdDiv            0      0.00%     79.42% # Number of instructions issued per FU type, per thread (Count)
system.cpu0.statIssuedInstType_0::SimdSqrt            0      0.00%     79.42% # Number of instructions issued per FU type, per thread (Count)
system.cpu0.statIssuedInstType_0::SimdFloatAdd            0      0.00%     79.42% # Number of instructions issued per FU type, per thread (Count)
system.cpu0.statIssuedInstType_0::SimdFloatAlu            0      0.00%     79.42% # Number of instructions issued per FU type, per thread (Count)
system.cpu0.statIssuedInstType_0::SimdFloatCmp            0      0.00%     79.42% # Number of instructions issued per FU type, per thread (Count)
system.cpu0.statIssuedInstType_0::SimdFloatCvt            0      0.00%     79.42% # Number of instructions issued per FU type, per thread (Count)
system.cpu0.statIssuedInstType_0::SimdFloatDiv            0      0.00%     79.42% # Number of instructions issued per FU type, per thread (Count)
system.cpu0.statIssuedInstType_0::SimdFloatMisc            0      0.00%     79.42% # Number of instructions issued per FU type, per thread (Count)
system.cpu0.statIssuedInstType_0::SimdFloatMult            0      0.00%     79.42% # Number of instructions issued per FU type, per thread (Count)
system.cpu0.statIssuedInstType_0::SimdFloatMultAcc            0      0.00%     79.42% # Number of instructions issued per FU type, per thread (Count)
system.cpu0.statIssuedInstType_0::SimdFloatSqrt            0      0.00%     79.42% # Number of instructions issued per FU type, per thread (Count)
system.cpu0.statIssuedInstType_0::SimdReduceAdd            0      0.00%     79.42% # Number of instructions issued per FU type, per thread (Count)
system.cpu0.statIssuedInstType_0::SimdReduceAlu            0      0.00%     79.42% # Number of instructions issued per FU type, per thread (Count)
system.cpu0.statIssuedInstType_0::SimdReduceCmp            0      0.00%     79.42% # Number of instructions issued per FU type, per thread (Count)
system.cpu0.statIssuedInstType_0::SimdFloatReduceAdd            0      0.00%     79.42% # Number of instructions issued per FU type, per thread (Count)
system.cpu0.statIssuedInstType_0::SimdFloatReduceCmp            0      0.00%     79.42% # Number of instructions issued per FU type, per thread (Count)
system.cpu0.statIssuedInstType_0::SimdAes            0      0.00%     79.42% # Number of instructions issued per FU type, per thread (Count)
system.cpu0.statIssuedInstType_0::SimdAesMix            0      0.00%     79.42% # Number of instructions issued per FU type, per thread (Count)
system.cpu0.statIssuedInstType_0::SimdSha1Hash            0      0.00%     79.42% # Number of instructions issued per FU type, per thread (Count)
system.cpu0.statIssuedInstType_0::SimdSha1Hash2            0      0.00%     79.42% # Number of instructions issued per FU type, per thread (Count)
system.cpu0.statIssuedInstType_0::SimdSha256Hash            0      0.00%     79.42% # Number of instructions issued per FU type, per thread (Count)
system.cpu0.statIssuedInstType_0::SimdSha256Hash2            0      0.00%     79.42% # Number of instructions issued per FU type, per thread (Count)
system.cpu0.statIssuedInstType_0::SimdShaSigma2            0      0.00%     79.42% # Number of instructions issued per FU type, per thread (Count)
system.cpu0.statIssuedInstType_0::SimdShaSigma3            0      0.00%     79.42% # Number of instructions issued per FU type, per thread (Count)
system.cpu0.statIssuedInstType_0::SimdPredAlu            0      0.00%     79.42% # Number of instructions issued per FU type, per thread (Count)
system.cpu0.statIssuedInstType_0::MemRead      2779828     12.65%     92.06% # Number of instructions issued per FU type, per thread (Count)
system.cpu0.statIssuedInstType_0::MemWrite      1692409      7.70%     99.76% # Number of instructions issued per FU type, per thread (Count)
system.cpu0.statIssuedInstType_0::FloatMemRead        33839      0.15%     99.92% # Number of instructions issued per FU type, per thread (Count)
system.cpu0.statIssuedInstType_0::FloatMemWrite        18138      0.08%    100.00% # Number of instructions issued per FU type, per thread (Count)
system.cpu0.statIssuedInstType_0::IprAccess            0      0.00%    100.00% # Number of instructions issued per FU type, per thread (Count)
system.cpu0.statIssuedInstType_0::InstPrefetch            0      0.00%    100.00% # Number of instructions issued per FU type, per thread (Count)
system.cpu0.statIssuedInstType_0::total      21980048                       # Number of instructions issued per FU type, per thread (Count)
system.cpu0.issueRate                        1.344609                       # Inst issue rate ((Count/Cycle))
system.cpu0.fuBusy                             103621                       # FU busy when requested (Count)
system.cpu0.fuBusyRate                       0.004714                       # FU busy rate (busy events/executed inst) ((Count/Count))
system.cpu0.intInstQueueReads                58938418                       # Number of integer instruction queue reads (Count)
system.cpu0.intInstQueueWrites               23680679                       # Number of integer instruction queue writes (Count)
system.cpu0.intInstQueueWakeupAccesses       21766860                       # Number of integer instruction queue wakeup accesses (Count)
system.cpu0.fpInstQueueReads                   234566                       # Number of floating instruction queue reads (Count)
system.cpu0.fpInstQueueWrites                  178791                       # Number of floating instruction queue writes (Count)
system.cpu0.fpInstQueueWakeupAccesses          112312                       # Number of floating instruction queue wakeup accesses (Count)
system.cpu0.vecInstQueueReads                       0                       # Number of vector instruction queue reads (Count)
system.cpu0.vecInstQueueWrites                      0                       # Number of vector instruction queue writes (Count)
system.cpu0.vecInstQueueWakeupAccesses              0                       # Number of vector instruction queue wakeup accesses (Count)
system.cpu0.intAluAccesses                   21930045                       # Number of integer alu accesses (Count)
system.cpu0.fpAluAccesses                      118311                       # Number of floating point alu accesses (Count)
system.cpu0.vecAluAccesses                          0                       # Number of vector alu accesses (Count)
system.cpu0.numInsts                         21919869                       # Number of executed instructions (Count)
system.cpu0.numLoadInsts                      2801716                       # Number of load instructions executed (Count)
system.cpu0.numSquashedInsts                    60179                       # Number of squashed instructions skipped in execute (Count)
system.cpu0.numSwp                                  0                       # Number of swp insts executed (Count)
system.cpu0.numNop                                  0                       # Number of nop insts executed (Count)
system.cpu0.numRefs                           4510104                       # Number of memory reference insts executed (Count)
system.cpu0.numBranches                       1798235                       # Number of branches executed (Count)
system.cpu0.numStoreInsts                     1708388                       # Number of stores executed (Count)
system.cpu0.numRate                          1.340927                       # Inst execution rate ((Count/Cycle))
system.cpu0.timesIdled                           2363                       # Number of times that the entire CPU went into an idle state and unscheduled itself (Count)
system.cpu0.idleCycles                        1240452                       # Total number of cycles that the CPU has spent unscheduled due to idling (Cycle)
system.cpu0.committedInsts                    9167119                       # Number of Instructions Simulated (Count)
system.cpu0.committedOps                     21127004                       # Number of Ops (including micro ops) Simulated (Count)
system.cpu0.cpi                              1.783199                       # CPI: Cycles Per Instruction ((Cycle/Count))
system.cpu0.totalCpi                         1.783199                       # CPI: Total CPI of All Threads ((Cycle/Count))
system.cpu0.ipc                              0.560790                       # IPC: Instructions Per Cycle ((Count/Cycle))
system.cpu0.totalIpc                         0.560790                       # IPC: Total IPC of All Threads ((Count/Cycle))
system.cpu0.intRegfileReads                  34555563                       # Number of integer regfile reads (Count)
system.cpu0.intRegfileWrites                 17728270                       # Number of integer regfile writes (Count)
system.cpu0.fpRegfileReads                     153115                       # Number of floating regfile reads (Count)
system.cpu0.fpRegfileWrites                     84815                       # Number of floating regfile writes (Count)
system.cpu0.ccRegfileReads                   14668765                       # number of cc regfile reads (Count)
system.cpu0.ccRegfileWrites                  10377751                       # number of cc regfile writes (Count)
system.cpu0.miscRegfileReads                  5813640                       # number of misc regfile reads (Count)
system.cpu0.miscRegfileWrites                     846                       # number of misc regfile writes (Count)
system.cpu0.MemDepUnit__0.insertedLoads       2863490                       # Number of loads inserted to the mem dependence unit. (Count)
system.cpu0.MemDepUnit__0.insertedStores      1740031                       # Number of stores inserted to the mem dependence unit. (Count)
system.cpu0.MemDepUnit__0.conflictingLoads       388391                       # Number of conflicting loads. (Count)
system.cpu0.MemDepUnit__0.conflictingStores       201641                       # Number of conflicting stores. (Count)
system.cpu0.MemDepUnit__1.insertedLoads             0                       # Number of loads inserted to the mem dependence unit. (Count)
system.cpu0.MemDepUnit__1.insertedStores            0                       # Number of stores inserted to the mem dependence unit. (Count)
system.cpu0.MemDepUnit__1.conflictingLoads            0                       # Number of conflicting loads. (Count)
system.cpu0.MemDepUnit__1.conflictingStores            0                       # Number of conflicting stores. (Count)
system.cpu0.MemDepUnit__2.insertedLoads             0                       # Number of loads inserted to the mem dependence unit. (Count)
system.cpu0.MemDepUnit__2.insertedStores            0                       # Number of stores inserted to the mem dependence unit. (Count)
system.cpu0.MemDepUnit__2.conflictingLoads            0                       # Number of conflicting loads. (Count)
system.cpu0.MemDepUnit__2.conflictingStores            0                       # Number of conflicting stores. (Count)
system.cpu0.MemDepUnit__3.insertedLoads             0                       # Number of loads inserted to the mem dependence unit. (Count)
system.cpu0.MemDepUnit__3.insertedStores            0                       # Number of stores inserted to the mem dependence unit. (Count)
system.cpu0.MemDepUnit__3.conflictingLoads            0                       # Number of conflicting loads. (Count)
system.cpu0.MemDepUnit__3.conflictingStores            0                       # Number of conflicting stores. (Count)
system.cpu0.branchPred.lookups                1980399                       # Number of BP lookups (Count)
system.cpu0.branchPred.condPredicted          1912786                       # Number of conditional branches predicted (Count)
system.cpu0.branchPred.condIncorrect            44692                       # Number of conditional branches incorrect (Count)
system.cpu0.branchPred.BTBLookups             1729288                       # Number of BTB lookups (Count)
system.cpu0.branchPred.BTBUpdates               19013                       # Number of BTB updates (Count)
system.cpu0.branchPred.BTBHits                1725110                       # Number of BTB hits (Count)
system.cpu0.branchPred.BTBHitRatio           0.997584                       # BTB Hit Ratio (Ratio)
system.cpu0.branchPred.RASUsed                  15798                       # Number of times the RAS was used to get a target. (Count)
system.cpu0.branchPred.RASIncorrect                 8                       # Number of incorrect RAS predictions. (Count)
system.cpu0.branchPred.indirectLookups          10084                       # Number of indirect predictor lookups. (Count)
system.cpu0.branchPred.indirectHits              5313                       # Number of indirect target hits. (Count)
system.cpu0.branchPred.indirectMisses            4771                       # Number of indirect misses. (Count)
system.cpu0.branchPred.indirectMispredicted         1249                       # Number of mispredicted indirect branches. (Count)
system.cpu0.commit.commitSquashedInsts        1356977                       # The number of squashed insts skipped by commit (Count)
system.cpu0.commit.commitNonSpecStalls            853                       # The number of times commit has been forced to stall to communicate backwards (Count)
system.cpu0.commit.branchMispredicts            38190                       # The number of times a branch was mispredicted (Count)
system.cpu0.commit.numCommittedDist::samples     14906460                       # Number of insts commited each cycle (Count)
system.cpu0.commit.numCommittedDist::mean     1.417305                       # Number of insts commited each cycle (Count)
system.cpu0.commit.numCommittedDist::stdev     2.337194                       # Number of insts commited each cycle (Count)
system.cpu0.commit.numCommittedDist::underflows            0      0.00%      0.00% # Number of insts commited each cycle (Count)
system.cpu0.commit.numCommittedDist::0        8968316     60.16%     60.16% # Number of insts commited each cycle (Count)
system.cpu0.commit.numCommittedDist::1        2007448     13.47%     73.63% # Number of insts commited each cycle (Count)
system.cpu0.commit.numCommittedDist::2         663835      4.45%     78.08% # Number of insts commited each cycle (Count)
system.cpu0.commit.numCommittedDist::3         479523      3.22%     81.30% # Number of insts commited each cycle (Count)
system.cpu0.commit.numCommittedDist::4         706923      4.74%     86.04% # Number of insts commited each cycle (Count)
system.cpu0.commit.numCommittedDist::5         556113      3.73%     89.77% # Number of insts commited each cycle (Count)
system.cpu0.commit.numCommittedDist::6         681271      4.57%     94.34% # Number of insts commited each cycle (Count)
system.cpu0.commit.numCommittedDist::7          86814      0.58%     94.93% # Number of insts commited each cycle (Count)
system.cpu0.commit.numCommittedDist::8         756217      5.07%    100.00% # Number of insts commited each cycle (Count)
system.cpu0.commit.numCommittedDist::overflows            0      0.00%    100.00% # Number of insts commited each cycle (Count)
system.cpu0.commit.numCommittedDist::min_value            0                       # Number of insts commited each cycle (Count)
system.cpu0.commit.numCommittedDist::max_value            8                       # Number of insts commited each cycle (Count)
system.cpu0.commit.numCommittedDist::total     14906460                       # Number of insts commited each cycle (Count)
system.cpu0.commit.instsCommitted             9167119                       # Number of instructions committed (Count)
system.cpu0.commit.opsCommitted              21127004                       # Number of ops (including micro ops) committed (Count)
system.cpu0.commit.memRefs                    4359903                       # Number of memory references committed (Count)
system.cpu0.commit.loads                      2677397                       # Number of loads committed (Count)
system.cpu0.commit.amos                             0                       # Number of atomic instructions committed (Count)
system.cpu0.commit.membars                          2                       # Number of memory barriers committed (Count)
system.cpu0.commit.branches                   1753447                       # Number of branches committed (Count)
system.cpu0.commit.vectorInstructions               0                       # Number of committed Vector instructions. (Count)
system.cpu0.commit.floating                     82163                       # Number of committed floating point instructions. (Count)
system.cpu0.commit.integer                   19890631                       # Number of committed integer instructions. (Count)
system.cpu0.commit.functionCalls                11860                       # Number of function calls committed. (Count)
system.cpu0.commit.committedInstType_0::No_OpClass        18973      0.09%      0.09% # Class of committed instruction (Count)
system.cpu0.commit.committedInstType_0::IntAlu     16666276     78.89%     78.98% # Class of committed instruction (Count)
system.cpu0.commit.committedInstType_0::IntMult           29      0.00%     78.98% # Class of committed instruction (Count)
system.cpu0.commit.committedInstType_0::IntDiv        35987      0.17%     79.15% # Class of committed instruction (Count)
system.cpu0.commit.committedInstType_0::FloatAdd         3202      0.02%     79.16% # Class of committed instruction (Count)
system.cpu0.commit.committedInstType_0::FloatCmp            0      0.00%     79.16% # Class of committed instruction (Count)
system.cpu0.commit.committedInstType_0::FloatCvt         1504      0.01%     79.17% # Class of committed instruction (Count)
system.cpu0.commit.committedInstType_0::FloatMult            0      0.00%     79.17% # Class of committed instruction (Count)
system.cpu0.commit.committedInstType_0::FloatMultAcc            0      0.00%     79.17% # Class of committed instruction (Count)
system.cpu0.commit.committedInstType_0::FloatDiv            0      0.00%     79.17% # Class of committed instruction (Count)
system.cpu0.commit.committedInstType_0::FloatMisc            0      0.00%     79.17% # Class of committed instruction (Count)
system.cpu0.commit.committedInstType_0::FloatSqrt            0      0.00%     79.17% # Class of committed instruction (Count)
system.cpu0.commit.committedInstType_0::SimdAdd         6750      0.03%     79.20% # Class of committed instruction (Count)
system.cpu0.commit.committedInstType_0::SimdAddAcc            0      0.00%     79.20% # Class of committed instruction (Count)
system.cpu0.commit.committedInstType_0::SimdAlu        12218      0.06%     79.26% # Class of committed instruction (Count)
system.cpu0.commit.committedInstType_0::SimdCmp            0      0.00%     79.26% # Class of committed instruction (Count)
system.cpu0.commit.committedInstType_0::SimdCvt        13196      0.06%     79.32% # Class of committed instruction (Count)
system.cpu0.commit.committedInstType_0::SimdMisc         7208      0.03%     79.36% # Class of committed instruction (Count)
system.cpu0.commit.committedInstType_0::SimdMult            0      0.00%     79.36% # Class of committed instruction (Count)
system.cpu0.commit.committedInstType_0::SimdMultAcc            0      0.00%     79.36% # Class of committed instruction (Count)
system.cpu0.commit.committedInstType_0::SimdShift         1758      0.01%     79.36% # Class of committed instruction (Count)
system.cpu0.commit.committedInstType_0::SimdShiftAcc            0      0.00%     79.36% # Class of committed instruction (Count)
system.cpu0.commit.committedInstType_0::SimdDiv            0      0.00%     79.36% # Class of committed instruction (Count)
system.cpu0.commit.committedInstType_0::SimdSqrt            0      0.00%     79.36% # Class of committed instruction (Count)
system.cpu0.commit.committedInstType_0::SimdFloatAdd            0      0.00%     79.36% # Class of committed instruction (Count)
system.cpu0.commit.committedInstType_0::SimdFloatAlu            0      0.00%     79.36% # Class of committed instruction (Count)
system.cpu0.commit.committedInstType_0::SimdFloatCmp            0      0.00%     79.36% # Class of committed instruction (Count)
system.cpu0.commit.committedInstType_0::SimdFloatCvt            0      0.00%     79.36% # Class of committed instruction (Count)
system.cpu0.commit.committedInstType_0::SimdFloatDiv            0      0.00%     79.36% # Class of committed instruction (Count)
system.cpu0.commit.committedInstType_0::SimdFloatMisc            0      0.00%     79.36% # Class of committed instruction (Count)
system.cpu0.commit.committedInstType_0::SimdFloatMult            0      0.00%     79.36% # Class of committed instruction (Count)
system.cpu0.commit.committedInstType_0::SimdFloatMultAcc            0      0.00%     79.36% # Class of committed instruction (Count)
system.cpu0.commit.committedInstType_0::SimdFloatSqrt            0      0.00%     79.36% # Class of committed instruction (Count)
system.cpu0.commit.committedInstType_0::SimdReduceAdd            0      0.00%     79.36% # Class of committed instruction (Count)
system.cpu0.commit.committedInstType_0::SimdReduceAlu            0      0.00%     79.36% # Class of committed instruction (Count)
system.cpu0.commit.committedInstType_0::SimdReduceCmp            0      0.00%     79.36% # Class of committed instruction (Count)
system.cpu0.commit.committedInstType_0::SimdFloatReduceAdd            0      0.00%     79.36% # Class of committed instruction (Count)
system.cpu0.commit.committedInstType_0::SimdFloatReduceCmp            0      0.00%     79.36% # Class of committed instruction (Count)
system.cpu0.commit.committedInstType_0::SimdAes            0      0.00%     79.36% # Class of committed instruction (Count)
system.cpu0.commit.committedInstType_0::SimdAesMix            0      0.00%     79.36% # Class of committed instruction (Count)
system.cpu0.commit.committedInstType_0::SimdSha1Hash            0      0.00%     79.36% # Class of committed instruction (Count)
system.cpu0.commit.committedInstType_0::SimdSha1Hash2            0      0.00%     79.36% # Class of committed instruction (Count)
system.cpu0.commit.committedInstType_0::SimdSha256Hash            0      0.00%     79.36% # Class of committed instruction (Count)
system.cpu0.commit.committedInstType_0::SimdSha256Hash2            0      0.00%     79.36% # Class of committed instruction (Count)
system.cpu0.commit.committedInstType_0::SimdShaSigma2            0      0.00%     79.36% # Class of committed instruction (Count)
system.cpu0.commit.committedInstType_0::SimdShaSigma3            0      0.00%     79.36% # Class of committed instruction (Count)
system.cpu0.commit.committedInstType_0::SimdPredAlu            0      0.00%     79.36% # Class of committed instruction (Count)
system.cpu0.commit.committedInstType_0::MemRead      2656064     12.57%     91.94% # Class of committed instruction (Count)
system.cpu0.commit.committedInstType_0::MemWrite      1668412      7.90%     99.83% # Class of committed instruction (Count)
system.cpu0.commit.committedInstType_0::FloatMemRead        21333      0.10%     99.93% # Class of committed instruction (Count)
system.cpu0.commit.committedInstType_0::FloatMemWrite        14094      0.07%    100.00% # Class of committed instruction (Count)
system.cpu0.commit.committedInstType_0::IprAccess            0      0.00%    100.00% # Class of committed instruction (Count)
system.cpu0.commit.committedInstType_0::InstPrefetch            0      0.00%    100.00% # Class of committed instruction (Count)
system.cpu0.commit.committedInstType_0::total     21127004                       # Class of committed instruction (Count)
system.cpu0.commit.commitEligibleSamples       756217                       # number cycles where commit BW limit reached (Cycle)
system.cpu0.decode.idleCycles                 1256060                       # Number of cycles decode is idle (Cycle)
system.cpu0.decode.blockedCycles             10743511                       # Number of cycles decode is blocked (Cycle)
system.cpu0.decode.runCycles                  1603069                       # Number of cycles decode is running (Cycle)
system.cpu0.decode.unblockCycles              1464684                       # Number of cycles decode is unblocking (Cycle)
system.cpu0.decode.squashCycles                 39022                       # Number of cycles decode is squashing (Cycle)
system.cpu0.decode.branchResolved             1665818                       # Number of times decode resolved a branch (Count)
system.cpu0.decode.branchMispred                 9424                       # Number of times decode detected a branch misprediction (Count)
system.cpu0.decode.decodedInsts              22917718                       # Number of instructions handled by decode (Count)
system.cpu0.decode.squashedInsts                38600                       # Number of squashed instructions handled by decode (Count)
system.cpu0.fetch.icacheStallCycles           1089966                       # Number of cycles fetch is stalled on an Icache miss (Cycle)
system.cpu0.fetch.insts                      10501806                       # Number of instructions fetch has processed (Count)
system.cpu0.fetch.branches                    1980399                       # Number of branches that fetch encountered (Count)
system.cpu0.fetch.predictedBranches           1746221                       # Number of branches that fetch has predicted taken (Count)
system.cpu0.fetch.cycles                     13721334                       # Number of cycles fetch has run and was not squashing or blocked (Cycle)
system.cpu0.fetch.squashCycles                  96838                       # Number of cycles fetch has spent squashing (Cycle)
system.cpu0.fetch.miscStallCycles               15290                       # Number of cycles fetch has spent waiting on interrupts, or bad addresses, or out of MSHRs (Cycle)
system.cpu0.fetch.pendingTrapStallCycles        19189                       # Number of stall cycles due to pending traps (Cycle)
system.cpu0.fetch.icacheWaitRetryStallCycles       212148                       # Number of stall cycles due to full MSHR (Cycle)
system.cpu0.fetch.cacheLines                   871689                       # Number of cache lines fetched (Count)
system.cpu0.fetch.icacheSquashes                 9116                       # Number of outstanding Icache misses that were squashed (Count)
system.cpu0.fetch.nisnDist::samples          15106346                       # Number of instructions fetched each cycle (Total) (Count)
system.cpu0.fetch.nisnDist::mean             1.571763                       # Number of instructions fetched each cycle (Total) (Count)
system.cpu0.fetch.nisnDist::stdev            3.021501                       # Number of instructions fetched each cycle (Total) (Count)
system.cpu0.fetch.nisnDist::underflows              0      0.00%      0.00% # Number of instructions fetched each cycle (Total) (Count)
system.cpu0.fetch.nisnDist::0                11545002     76.42%     76.42% # Number of instructions fetched each cycle (Total) (Count)
system.cpu0.fetch.nisnDist::1                  198849      1.32%     77.74% # Number of instructions fetched each cycle (Total) (Count)
system.cpu0.fetch.nisnDist::2                  103748      0.69%     78.43% # Number of instructions fetched each cycle (Total) (Count)
system.cpu0.fetch.nisnDist::3                  142270      0.94%     79.37% # Number of instructions fetched each cycle (Total) (Count)
system.cpu0.fetch.nisnDist::4                  229708      1.52%     80.89% # Number of instructions fetched each cycle (Total) (Count)
system.cpu0.fetch.nisnDist::5                  160828      1.06%     81.95% # Number of instructions fetched each cycle (Total) (Count)
system.cpu0.fetch.nisnDist::6                  241341      1.60%     83.55% # Number of instructions fetched each cycle (Total) (Count)
system.cpu0.fetch.nisnDist::7                  137384      0.91%     84.46% # Number of instructions fetched each cycle (Total) (Count)
system.cpu0.fetch.nisnDist::8                 2347216     15.54%    100.00% # Number of instructions fetched each cycle (Total) (Count)
system.cpu0.fetch.nisnDist::overflows               0      0.00%    100.00% # Number of instructions fetched each cycle (Total) (Count)
system.cpu0.fetch.nisnDist::min_value               0                       # Number of instructions fetched each cycle (Total) (Count)
system.cpu0.fetch.nisnDist::max_value               8                       # Number of instructions fetched each cycle (Total) (Count)
system.cpu0.fetch.nisnDist::total            15106346                       # Number of instructions fetched each cycle (Total) (Count)
system.cpu0.fetch.branchRate                 0.121149                       # Number of branch fetches per cycle (Ratio)
system.cpu0.fetch.rate                       0.642438                       # Number of inst fetches per cycle ((Count/Cycle))
system.cpu0.iew.idleCycles                          0                       # Number of cycles IEW is idle (Cycle)
system.cpu0.iew.squashCycles                    39022                       # Number of cycles IEW is squashing (Cycle)
system.cpu0.iew.blockCycles                   5402184                       # Number of cycles IEW is blocking (Cycle)
system.cpu0.iew.unblockCycles                  162089                       # Number of cycles IEW is unblocking (Cycle)
system.cpu0.iew.dispatchedInsts              22493104                       # Number of instructions dispatched to IQ (Count)
system.cpu0.iew.dispSquashedInsts               11340                       # Number of squashed instructions skipped by dispatch (Count)
system.cpu0.iew.dispLoadInsts                 2863490                       # Number of dispatched load instructions (Count)
system.cpu0.iew.dispStoreInsts                1740031                       # Number of dispatched store instructions (Count)
system.cpu0.iew.dispNonSpecInsts                  901                       # Number of dispatched non-speculative instructions (Count)
system.cpu0.iew.iqFullEvents                    13463                       # Number of times the IQ has become full, causing a stall (Count)
system.cpu0.iew.lsqFullEvents                  143473                       # Number of times the LSQ has become full, causing a stall (Count)
system.cpu0.iew.memOrderViolationEvents           279                       # Number of memory order violations (Count)
system.cpu0.iew.predictedTakenIncorrect         25074                       # Number of branches that were predicted taken incorrectly (Count)
system.cpu0.iew.predictedNotTakenIncorrect        15360                       # Number of branches that were predicted not taken incorrectly (Count)
system.cpu0.iew.branchMispredicts               40434                       # Number of branch mispredicts detected at execute (Count)
system.cpu0.iew.instsToCommit                21893456                       # Cumulative count of insts sent to commit (Count)
system.cpu0.iew.writebackCount               21879172                       # Cumulative count of insts written-back (Count)
system.cpu0.iew.producerInst                 16650696                       # Number of instructions producing a value (Count)
system.cpu0.iew.consumerInst                 30582041                       # Number of instructions consuming a value (Count)
system.cpu0.iew.wbRate                       1.338438                       # Insts written-back per cycle ((Count/Cycle))
system.cpu0.iew.wbFanout                     0.544460                       # Average fanout of values written-back ((Count/Count))
system.cpu0.interrupts.clk_domain.clock          8000                       # Clock period in ticks (Tick)
system.cpu0.lsq0.forwLoads                     486072                       # Number of loads that had data forwarded from stores (Count)
system.cpu0.lsq0.squashedLoads                 186093                       # Number of loads squashed (Count)
system.cpu0.lsq0.ignoredResponses                 105                       # Number of memory responses ignored because the instruction is squashed (Count)
system.cpu0.lsq0.memOrderViolation                279                       # Number of memory ordering violations (Count)
system.cpu0.lsq0.squashedStores                 57525                       # Number of stores squashed (Count)
system.cpu0.lsq0.rescheduledLoads                2332                       # Number of loads that were rescheduled (Count)
system.cpu0.lsq0.blockedByCache                  2091                       # Number of times an access to memory failed due to the cache being blocked (Count)
system.cpu0.lsq0.loadToUse::samples           2677319                       # Distribution of cycle latency between the first time a load is issued and its completion (Unspecified)
system.cpu0.lsq0.loadToUse::mean            15.371109                       # Distribution of cycle latency between the first time a load is issued and its completion (Unspecified)
system.cpu0.lsq0.loadToUse::stdev          102.589464                       # Distribution of cycle latency between the first time a load is issued and its completion (Unspecified)
system.cpu0.lsq0.loadToUse::0-9               2631270     98.28%     98.28% # Distribution of cycle latency between the first time a load is issued and its completion (Unspecified)
system.cpu0.lsq0.loadToUse::10-19                  83      0.00%     98.28% # Distribution of cycle latency between the first time a load is issued and its completion (Unspecified)
system.cpu0.lsq0.loadToUse::20-29                  77      0.00%     98.29% # Distribution of cycle latency between the first time a load is issued and its completion (Unspecified)
system.cpu0.lsq0.loadToUse::30-39                  70      0.00%     98.29% # Distribution of cycle latency between the first time a load is issued and its completion (Unspecified)
system.cpu0.lsq0.loadToUse::40-49                  73      0.00%     98.29% # Distribution of cycle latency between the first time a load is issued and its completion (Unspecified)
system.cpu0.lsq0.loadToUse::50-59                  93      0.00%     98.29% # Distribution of cycle latency between the first time a load is issued and its completion (Unspecified)
system.cpu0.lsq0.loadToUse::60-69                  76      0.00%     98.30% # Distribution of cycle latency between the first time a load is issued and its completion (Unspecified)
system.cpu0.lsq0.loadToUse::70-79                  68      0.00%     98.30% # Distribution of cycle latency between the first time a load is issued and its completion (Unspecified)
system.cpu0.lsq0.loadToUse::80-89                  59      0.00%     98.30% # Distribution of cycle latency between the first time a load is issued and its completion (Unspecified)
system.cpu0.lsq0.loadToUse::90-99                  51      0.00%     98.30% # Distribution of cycle latency between the first time a load is issued and its completion (Unspecified)
system.cpu0.lsq0.loadToUse::100-109                50      0.00%     98.31% # Distribution of cycle latency between the first time a load is issued and its completion (Unspecified)
system.cpu0.lsq0.loadToUse::110-119                66      0.00%     98.31% # Distribution of cycle latency between the first time a load is issued and its completion (Unspecified)
system.cpu0.lsq0.loadToUse::120-129                55      0.00%     98.31% # Distribution of cycle latency between the first time a load is issued and its completion (Unspecified)
system.cpu0.lsq0.loadToUse::130-139                42      0.00%     98.31% # Distribution of cycle latency between the first time a load is issued and its completion (Unspecified)
system.cpu0.lsq0.loadToUse::140-149                55      0.00%     98.31% # Distribution of cycle latency between the first time a load is issued and its completion (Unspecified)
system.cpu0.lsq0.loadToUse::150-159                35      0.00%     98.32% # Distribution of cycle latency between the first time a load is issued and its completion (Unspecified)
system.cpu0.lsq0.loadToUse::160-169                72      0.00%     98.32% # Distribution of cycle latency between the first time a load is issued and its completion (Unspecified)
system.cpu0.lsq0.loadToUse::170-179               157      0.01%     98.32% # Distribution of cycle latency between the first time a load is issued and its completion (Unspecified)
system.cpu0.lsq0.loadToUse::180-189               597      0.02%     98.35% # Distribution of cycle latency between the first time a load is issued and its completion (Unspecified)
system.cpu0.lsq0.loadToUse::190-199                46      0.00%     98.35% # Distribution of cycle latency between the first time a load is issued and its completion (Unspecified)
system.cpu0.lsq0.loadToUse::200-209                56      0.00%     98.35% # Distribution of cycle latency between the first time a load is issued and its completion (Unspecified)
system.cpu0.lsq0.loadToUse::210-219                71      0.00%     98.35% # Distribution of cycle latency between the first time a load is issued and its completion (Unspecified)
system.cpu0.lsq0.loadToUse::220-229                77      0.00%     98.36% # Distribution of cycle latency between the first time a load is issued and its completion (Unspecified)
system.cpu0.lsq0.loadToUse::230-239               127      0.00%     98.36% # Distribution of cycle latency between the first time a load is issued and its completion (Unspecified)
system.cpu0.lsq0.loadToUse::240-249               505      0.02%     98.38% # Distribution of cycle latency between the first time a load is issued and its completion (Unspecified)
system.cpu0.lsq0.loadToUse::250-259                35      0.00%     98.38% # Distribution of cycle latency between the first time a load is issued and its completion (Unspecified)
system.cpu0.lsq0.loadToUse::260-269                37      0.00%     98.38% # Distribution of cycle latency between the first time a load is issued and its completion (Unspecified)
system.cpu0.lsq0.loadToUse::270-279                85      0.00%     98.39% # Distribution of cycle latency between the first time a load is issued and its completion (Unspecified)
system.cpu0.lsq0.loadToUse::280-289                93      0.00%     98.39% # Distribution of cycle latency between the first time a load is issued and its completion (Unspecified)
system.cpu0.lsq0.loadToUse::290-299               130      0.00%     98.39% # Distribution of cycle latency between the first time a load is issued and its completion (Unspecified)
system.cpu0.lsq0.loadToUse::overflows           43008      1.61%    100.00% # Distribution of cycle latency between the first time a load is issued and its completion (Unspecified)
system.cpu0.lsq0.loadToUse::min_value               2                       # Distribution of cycle latency between the first time a load is issued and its completion (Unspecified)
system.cpu0.lsq0.loadToUse::max_value            2583                       # Distribution of cycle latency between the first time a load is issued and its completion (Unspecified)
system.cpu0.lsq0.loadToUse::total             2677319                       # Distribution of cycle latency between the first time a load is issued and its completion (Unspecified)
system.cpu0.mmu.dtb.rdAccesses                2796101                       # TLB accesses on read requests (Count)
system.cpu0.mmu.dtb.wrAccesses                1708400                       # TLB accesses on write requests (Count)
system.cpu0.mmu.dtb.rdMisses                     3257                       # TLB misses on read requests (Count)
system.cpu0.mmu.dtb.wrMisses                      428                       # TLB misses on write requests (Count)
system.cpu0.mmu.dtb.walker.power_state.pwrStateResidencyTicks::UNDEFINED   8220777500                       # Cumulative time (in ticks) in various power states (Tick)
system.cpu0.mmu.itb.rdAccesses                      0                       # TLB accesses on read requests (Count)
system.cpu0.mmu.itb.wrAccesses                 874677                       # TLB accesses on write requests (Count)
system.cpu0.mmu.itb.rdMisses                        0                       # TLB misses on read requests (Count)
system.cpu0.mmu.itb.wrMisses                     3601                       # TLB misses on write requests (Count)
system.cpu0.mmu.itb.walker.power_state.pwrStateResidencyTicks::UNDEFINED   8220777500                       # Cumulative time (in ticks) in various power states (Tick)
system.cpu0.power_state.pwrStateResidencyTicks::ON   8220777500                       # Cumulative time (in ticks) in various power states (Tick)
system.cpu0.rename.squashCycles                 39022                       # Number of cycles rename is squashing (Cycle)
system.cpu0.rename.idleCycles                 1767615                       # Number of cycles rename is idle (Cycle)
system.cpu0.rename.blockCycles                7185963                       # Number of cycles rename is blocking (Cycle)
system.cpu0.rename.serializeStallCycles         23373                       # count of cycles rename stalled for serializing inst (Cycle)
system.cpu0.rename.runCycles                  2544314                       # Number of cycles rename is running (Cycle)
system.cpu0.rename.unblockCycles              3546059                       # Number of cycles rename is unblocking (Cycle)
system.cpu0.rename.renamedInsts              22749881                       # Number of instructions processed by rename (Count)
system.cpu0.rename.ROBFullEvents               113535                       # Number of times rename has blocked due to ROB full (Count)
system.cpu0.rename.IQFullEvents               1522955                       # Number of times rename has blocked due to IQ full (Count)
system.cpu0.rename.LQFullEvents                168952                       # Number of times rename has blocked due to LQ full (Count)
system.cpu0.rename.SQFullEvents               1688003                       # Number of times rename has blocked due to SQ full (Count)
system.cpu0.rename.fullRegistersEvents           3807                       # Number of times there has been no free registers (Count)
system.cpu0.rename.renamedOperands           49511186                       # Number of destination operands rename has renamed (Count)
system.cpu0.rename.lookups                   89837936                       # Number of register rename lookups that rename has made (Count)
system.cpu0.rename.intLookups                36139061                       # Number of integer rename lookups (Count)
system.cpu0.rename.fpLookups                   191576                       # Number of floating rename lookups (Count)
system.cpu0.rename.committedMaps             46101745                       # Number of HB maps that are committed (Count)
system.cpu0.rename.undoneMaps                 3409441                       # Number of HB maps that are undone due to squashing (Count)
system.cpu0.rename.serializing                    874                       # count of serializing insts renamed (Count)
system.cpu0.rename.tempSerializing                859                       # count of temporary serializing insts renamed (Count)
system.cpu0.rename.skidInsts                  6833838                       # count of insts added to the skid buffer (Count)
system.cpu0.rob.reads                        36626489                       # The number of ROB reads (Count)
system.cpu0.rob.writes                       45168082                       # The number of ROB writes (Count)
system.cpu0.thread_0.numInsts                 9167119                       # Number of Instructions committed (Count)
system.cpu0.thread_0.numOps                  21127004                       # Number of Ops committed (Count)
system.cpu0.thread_0.numMemRefs                     0                       # Number of Memory References (Count)
system.cpu0.workload.numSyscalls                   63                       # Number of system calls (Count)
system.cpu1.numCycles                        15961121                       # Number of cpu cycles simulated (Cycle)
system.cpu1.numWorkItemsStarted                     0                       # Number of work items this cpu started (Count)
system.cpu1.numWorkItemsCompleted                   0                       # Number of work items this cpu completed (Count)
system.cpu1.instsAdded                       22492811                       # Number of instructions added to the IQ (excludes non-spec) (Count)
system.cpu1.nonSpecInstsAdded                    1102                       # Number of non-speculative instructions added to the IQ (Count)
system.cpu1.instsIssued                      21980626                       # Number of instructions issued (Count)
system.cpu1.squashedInstsIssued                  2948                       # Number of squashed instructions issued (Count)
system.cpu1.squashedInstsExamined             1366909                       # Number of squashed instructions iterated over during squash; mainly for profiling (Count)
system.cpu1.squashedOperandsExamined          3036896                       # Number of squashed operands that are examined and possibly removed from graph (Count)
system.cpu1.squashedNonSpecRemoved                249                       # Number of squashed non-spec instructions that were removed (Count)
system.cpu1.numIssuedDist::samples           14798606                       # Number of insts issued each cycle (Count)
system.cpu1.numIssuedDist::mean              1.485317                       # Number of insts issued each cycle (Count)
system.cpu1.numIssuedDist::stdev             1.992909                       # Number of insts issued each cycle (Count)
system.cpu1.numIssuedDist::underflows               0      0.00%      0.00% # Number of insts issued each cycle (Count)
system.cpu1.numIssuedDist::0                  8170345     55.21%     55.21% # Number of insts issued each cycle (Count)
system.cpu1.numIssuedDist::1                  1120579      7.57%     62.78% # Number of insts issued each cycle (Count)
system.cpu1.numIssuedDist::2                  1034344      6.99%     69.77% # Number of insts issued each cycle (Count)
system.cpu1.numIssuedDist::3                  1739832     11.76%     81.53% # Number of insts issued each cycle (Count)
system.cpu1.numIssuedDist::4                  1158719      7.83%     89.36% # Number of insts issued each cycle (Count)
system.cpu1.numIssuedDist::5                   883868      5.97%     95.33% # Number of insts issued each cycle (Count)
system.cpu1.numIssuedDist::6                   398871      2.70%     98.03% # Number of insts issued each cycle (Count)
system.cpu1.numIssuedDist::7                   211963      1.43%     99.46% # Number of insts issued each cycle (Count)
system.cpu1.numIssuedDist::8                    80085      0.54%    100.00% # Number of insts issued each cycle (Count)
system.cpu1.numIssuedDist::overflows                0      0.00%    100.00% # Number of insts issued each cycle (Count)
system.cpu1.numIssuedDist::min_value                0                       # Number of insts issued each cycle (Count)
system.cpu1.numIssuedDist::max_value                8                       # Number of insts issued each cycle (Count)
system.cpu1.numIssuedDist::total             14798606                       # Number of insts issued each cycle (Count)
system.cpu1.statFuBusy::No_OpClass                  0      0.00%      0.00% # attempts to use FU when none available (Count)
system.cpu1.statFuBusy::IntAlu                  77226     74.49%     74.49% # attempts to use FU when none available (Count)
system.cpu1.statFuBusy::IntMult                     0      0.00%     74.49% # attempts to use FU when none available (Count)
system.cpu1.statFuBusy::IntDiv                      0      0.00%     74.49% # attempts to use FU when none available (Count)
system.cpu1.statFuBusy::FloatAdd                    0      0.00%     74.49% # attempts to use FU when none available (Count)
system.cpu1.statFuBusy::FloatCmp                    0      0.00%     74.49% # attempts to use FU when none available (Count)
system.cpu1.statFuBusy::FloatCvt                    0      0.00%     74.49% # attempts to use FU when none available (Count)
system.cpu1.statFuBusy::FloatMult                   0      0.00%     74.49% # attempts to use FU when none available (Count)
system.cpu1.statFuBusy::FloatMultAcc                0      0.00%     74.49% # attempts to use FU when none available (Count)
system.cpu1.statFuBusy::FloatDiv                    0      0.00%     74.49% # attempts to use FU when none available (Count)
system.cpu1.statFuBusy::FloatMisc                   0      0.00%     74.49% # attempts to use FU when none available (Count)
system.cpu1.statFuBusy::FloatSqrt                   0      0.00%     74.49% # attempts to use FU when none available (Count)
system.cpu1.statFuBusy::SimdAdd                     0      0.00%     74.49% # attempts to use FU when none available (Count)
system.cpu1.statFuBusy::SimdAddAcc                  0      0.00%     74.49% # attempts to use FU when none available (Count)
system.cpu1.statFuBusy::SimdAlu                   121      0.12%     74.61% # attempts to use FU when none available (Count)
system.cpu1.statFuBusy::SimdCmp                     0      0.00%     74.61% # attempts to use FU when none available (Count)
system.cpu1.statFuBusy::SimdCvt                   173      0.17%     74.78% # attempts to use FU when none available (Count)
system.cpu1.statFuBusy::SimdMisc                    0      0.00%     74.78% # attempts to use FU when none available (Count)
system.cpu1.statFuBusy::SimdMult                    0      0.00%     74.78% # attempts to use FU when none available (Count)
system.cpu1.statFuBusy::SimdMultAcc                 0      0.00%     74.78% # attempts to use FU when none available (Count)
system.cpu1.statFuBusy::SimdShift                 206      0.20%     74.98% # attempts to use FU when none available (Count)
system.cpu1.statFuBusy::SimdShiftAcc                0      0.00%     74.98% # attempts to use FU when none available (Count)
system.cpu1.statFuBusy::SimdDiv                     0      0.00%     74.98% # attempts to use FU when none available (Count)
system.cpu1.statFuBusy::SimdSqrt                    0      0.00%     74.98% # attempts to use FU when none available (Count)
system.cpu1.statFuBusy::SimdFloatAdd                0      0.00%     74.98% # attempts to use FU when none available (Count)
system.cpu1.statFuBusy::SimdFloatAlu                0      0.00%     74.98% # attempts to use FU when none available (Count)
system.cpu1.statFuBusy::SimdFloatCmp                0      0.00%     74.98% # attempts to use FU when none available (Count)
system.cpu1.statFuBusy::SimdFloatCvt                0      0.00%     74.98% # attempts to use FU when none available (Count)
system.cpu1.statFuBusy::SimdFloatDiv                0      0.00%     74.98% # attempts to use FU when none available (Count)
system.cpu1.statFuBusy::SimdFloatMisc               0      0.00%     74.98% # attempts to use FU when none available (Count)
system.cpu1.statFuBusy::SimdFloatMult               0      0.00%     74.98% # attempts to use FU when none available (Count)
system.cpu1.statFuBusy::SimdFloatMultAcc            0      0.00%     74.98% # attempts to use FU when none available (Count)
system.cpu1.statFuBusy::SimdFloatSqrt               0      0.00%     74.98% # attempts to use FU when none available (Count)
system.cpu1.statFuBusy::SimdReduceAdd               0      0.00%     74.98% # attempts to use FU when none available (Count)
system.cpu1.statFuBusy::SimdReduceAlu               0      0.00%     74.98% # attempts to use FU when none available (Count)
system.cpu1.statFuBusy::SimdReduceCmp               0      0.00%     74.98% # attempts to use FU when none available (Count)
system.cpu1.statFuBusy::SimdFloatReduceAdd            0      0.00%     74.98% # attempts to use FU when none available (Count)
system.cpu1.statFuBusy::SimdFloatReduceCmp            0      0.00%     74.98% # attempts to use FU when none available (Count)
system.cpu1.statFuBusy::SimdAes                     0      0.00%     74.98% # attempts to use FU when none available (Count)
system.cpu1.statFuBusy::SimdAesMix                  0      0.00%     74.98% # attempts to use FU when none available (Count)
system.cpu1.statFuBusy::SimdSha1Hash                0      0.00%     74.98% # attempts to use FU when none available (Count)
system.cpu1.statFuBusy::SimdSha1Hash2               0      0.00%     74.98% # attempts to use FU when none available (Count)
system.cpu1.statFuBusy::SimdSha256Hash              0      0.00%     74.98% # attempts to use FU when none available (Count)
system.cpu1.statFuBusy::SimdSha256Hash2             0      0.00%     74.98% # attempts to use FU when none available (Count)
system.cpu1.statFuBusy::SimdShaSigma2               0      0.00%     74.98% # attempts to use FU when none available (Count)
system.cpu1.statFuBusy::SimdShaSigma3               0      0.00%     74.98% # attempts to use FU when none available (Count)
system.cpu1.statFuBusy::SimdPredAlu                 0      0.00%     74.98% # attempts to use FU when none available (Count)
system.cpu1.statFuBusy::MemRead                 12127     11.70%     86.67% # attempts to use FU when none available (Count)
system.cpu1.statFuBusy::MemWrite                11951     11.53%     98.20% # attempts to use FU when none available (Count)
system.cpu1.statFuBusy::FloatMemRead             1404      1.35%     99.56% # attempts to use FU when none available (Count)
system.cpu1.statFuBusy::FloatMemWrite             461      0.44%    100.00% # attempts to use FU when none available (Count)
system.cpu1.statFuBusy::IprAccess                   0      0.00%    100.00% # attempts to use FU when none available (Count)
system.cpu1.statFuBusy::InstPrefetch                0      0.00%    100.00% # attempts to use FU when none available (Count)
system.cpu1.statIssuedInstType_0::No_OpClass        35085      0.16%      0.16% # Number of instructions issued per FU type, per thread (Count)
system.cpu1.statIssuedInstType_0::IntAlu     17319577     78.79%     78.95% # Number of instructions issued per FU type, per thread (Count)
system.cpu1.statIssuedInstType_0::IntMult           38      0.00%     78.95% # Number of instructions issued per FU type, per thread (Count)
system.cpu1.statIssuedInstType_0::IntDiv        38354      0.17%     79.13% # Number of instructions issued per FU type, per thread (Count)
system.cpu1.statIssuedInstType_0::FloatAdd         4378      0.02%     79.15% # Number of instructions issued per FU type, per thread (Count)
system.cpu1.statIssuedInstType_0::FloatCmp            0      0.00%     79.15% # Number of instructions issued per FU type, per thread (Count)
system.cpu1.statIssuedInstType_0::FloatCvt         1714      0.01%     79.16% # Number of instructions issued per FU type, per thread (Count)
system.cpu1.statIssuedInstType_0::FloatMult            0      0.00%     79.16% # Number of instructions issued per FU type, per thread (Count)
system.cpu1.statIssuedInstType_0::FloatMultAcc            0      0.00%     79.16% # Number of instructions issued per FU type, per thread (Count)
system.cpu1.statIssuedInstType_0::FloatDiv            0      0.00%     79.16% # Number of instructions issued per FU type, per thread (Count)
system.cpu1.statIssuedInstType_0::FloatMisc            0      0.00%     79.16% # Number of instructions issued per FU type, per thread (Count)
system.cpu1.statIssuedInstType_0::FloatSqrt            0      0.00%     79.16% # Number of instructions issued per FU type, per thread (Count)
system.cpu1.statIssuedInstType_0::SimdAdd         8529      0.04%     79.20% # Number of instructions issued per FU type, per thread (Count)
system.cpu1.statIssuedInstType_0::SimdAddAcc            0      0.00%     79.20% # Number of instructions issued per FU type, per thread (Count)
system.cpu1.statIssuedInstType_0::SimdAlu        17262      0.08%     79.27% # Number of instructions issued per FU type, per thread (Count)
system.cpu1.statIssuedInstType_0::SimdCmp            0      0.00%     79.27% # Number of instructions issued per FU type, per thread (Count)
system.cpu1.statIssuedInstType_0::SimdCvt        18916      0.09%     79.36% # Number of instructions issued per FU type, per thread (Count)
system.cpu1.statIssuedInstType_0::SimdMisc         8980      0.04%     79.40% # Number of instructions issued per FU type, per thread (Count)
system.cpu1.statIssuedInstType_0::SimdMult            0      0.00%     79.40% # Number of instructions issued per FU type, per thread (Count)
system.cpu1.statIssuedInstType_0::SimdMultAcc            0      0.00%     79.40% # Number of instructions issued per FU type, per thread (Count)
system.cpu1.statIssuedInstType_0::SimdShift         2998      0.01%     79.41% # Number of instructions issued per FU type, per thread (Count)
system.cpu1.statIssuedInstType_0::SimdShiftAcc            0      0.00%     79.41% # Number of instructions issued per FU type, per thread (Count)
system.cpu1.statIssuedInstType_0::SimdDiv            0      0.00%     79.41% # Number of instructions issued per FU type, per thread (Count)
system.cpu1.statIssuedInstType_0::SimdSqrt            0      0.00%     79.41% # Number of instructions issued per FU type, per thread (Count)
system.cpu1.statIssuedInstType_0::SimdFloatAdd            0      0.00%     79.41% # Number of instructions issued per FU type, per thread (Count)
system.cpu1.statIssuedInstType_0::SimdFloatAlu            0      0.00%     79.41% # Number of instructions issued per FU type, per thread (Count)
system.cpu1.statIssuedInstType_0::SimdFloatCmp            0      0.00%     79.41% # Number of instructions issued per FU type, per thread (Count)
system.cpu1.statIssuedInstType_0::SimdFloatCvt            0      0.00%     79.41% # Number of instructions issued per FU type, per thread (Count)
system.cpu1.statIssuedInstType_0::SimdFloatDiv            0      0.00%     79.41% # Number of instructions issued per FU type, per thread (Count)
system.cpu1.statIssuedInstType_0::SimdFloatMisc            0      0.00%     79.41% # Number of instructions issued per FU type, per thread (Count)
system.cpu1.statIssuedInstType_0::SimdFloatMult            0      0.00%     79.41% # Number of instructions issued per FU type, per thread (Count)
system.cpu1.statIssuedInstType_0::SimdFloatMultAcc            0      0.00%     79.41% # Number of instructions issued per FU type, per thread (Count)
system.cpu1.statIssuedInstType_0::SimdFloatSqrt            0      0.00%     79.41% # Number of instructions issued per FU type, per thread (Count)
system.cpu1.statIssuedInstType_0::SimdReduceAdd            0      0.00%     79.41% # Number of instructions issued per FU type, per thread (Count)
system.cpu1.statIssuedInstType_0::SimdReduceAlu            0      0.00%     79.41% # Number of instructions issued per FU type, per thread (Count)
system.cpu1.statIssuedInstType_0::SimdReduceCmp            0      0.00%     79.41% # Number of instructions issued per FU type, per thread (Count)
system.cpu1.statIssuedInstType_0::SimdFloatReduceAdd            0      0.00%     79.41% # Number of instructions issued per FU type, per thread (Count)
system.cpu1.statIssuedInstType_0::SimdFloatReduceCmp            0      0.00%     79.41% # Number of instructions issued per FU type, per thread (Count)
system.cpu1.statIssuedInstType_0::SimdAes            0      0.00%     79.41% # Number of instructions issued per FU type, per thread (Count)
system.cpu1.statIssuedInstType_0::SimdAesMix            0      0.00%     79.41% # Number of instructions issued per FU type, per thread (Count)
system.cpu1.statIssuedInstType_0::SimdSha1Hash            0      0.00%     79.41% # Number of instructions issued per FU type, per thread (Count)
system.cpu1.statIssuedInstType_0::SimdSha1Hash2            0      0.00%     79.41% # Number of instructions issued per FU type, per thread (Count)
system.cpu1.statIssuedInstType_0::SimdSha256Hash            0      0.00%     79.41% # Number of instructions issued per FU type, per thread (Count)
system.cpu1.statIssuedInstType_0::SimdSha256Hash2            0      0.00%     79.41% # Number of instructions issued per FU type, per thread (Count)
system.cpu1.statIssuedInstType_0::SimdShaSigma2            0      0.00%     79.41% # Number of instructions issued per FU type, per thread (Count)
system.cpu1.statIssuedInstType_0::SimdShaSigma3            0      0.00%     79.41% # Number of instructions issued per FU type, per thread (Count)
system.cpu1.statIssuedInstType_0::SimdPredAlu            0      0.00%     79.41% # Number of instructions issued per FU type, per thread (Count)
system.cpu1.statIssuedInstType_0::MemRead      2780257     12.65%     92.06% # Number of instructions issued per FU type, per thread (Count)
system.cpu1.statIssuedInstType_0::MemWrite      1692510      7.70%     99.76% # Number of instructions issued per FU type, per thread (Count)
system.cpu1.statIssuedInstType_0::FloatMemRead        33852      0.15%     99.92% # Number of instructions issued per FU type, per thread (Count)
system.cpu1.statIssuedInstType_0::FloatMemWrite        18176      0.08%    100.00% # Number of instructions issued per FU type, per thread (Count)
system.cpu1.statIssuedInstType_0::IprAccess            0      0.00%    100.00% # Number of instructions issued per FU type, per thread (Count)
system.cpu1.statIssuedInstType_0::InstPrefetch            0      0.00%    100.00% # Number of instructions issued per FU type, per thread (Count)
system.cpu1.statIssuedInstType_0::total      21980626                       # Number of instructions issued per FU type, per thread (Count)
system.cpu1.issueRate                        1.377135                       # Inst issue rate ((Count/Cycle))
system.cpu1.fuBusy                             103669                       # FU busy when requested (Count)
system.cpu1.fuBusyRate                       0.004716                       # FU busy rate (busy events/executed inst) ((Count/Count))
system.cpu1.intInstQueueReads                58631910                       # Number of integer instruction queue reads (Count)
system.cpu1.intInstQueueWrites               23682217                       # Number of integer instruction queue writes (Count)
system.cpu1.intInstQueueWakeupAccesses       21767312                       # Number of integer instruction queue wakeup accesses (Count)
system.cpu1.fpInstQueueReads                   234565                       # Number of floating instruction queue reads (Count)
system.cpu1.fpInstQueueWrites                  178877                       # Number of floating instruction queue writes (Count)
system.cpu1.fpInstQueueWakeupAccesses          112257                       # Number of floating instruction queue wakeup accesses (Count)
system.cpu1.vecInstQueueReads                       0                       # Number of vector instruction queue reads (Count)
system.cpu1.vecInstQueueWrites                      0                       # Number of vector instruction queue writes (Count)
system.cpu1.vecInstQueueWakeupAccesses              0                       # Number of vector instruction queue wakeup accesses (Count)
system.cpu1.intAluAccesses                   21930895                       # Number of integer alu accesses (Count)
system.cpu1.fpAluAccesses                      118315                       # Number of floating point alu accesses (Count)
system.cpu1.vecAluAccesses                          0                       # Number of vector alu accesses (Count)
system.cpu1.numInsts                         21920520                       # Number of executed instructions (Count)
system.cpu1.numLoadInsts                      2802161                       # Number of load instructions executed (Count)
system.cpu1.numSquashedInsts                    60106                       # Number of squashed instructions skipped in execute (Count)
system.cpu1.numSwp                                  0                       # Number of swp insts executed (Count)
system.cpu1.numNop                                  0                       # Number of nop insts executed (Count)
system.cpu1.numRefs                           4510676                       # Number of memory reference insts executed (Count)
system.cpu1.numBranches                       1798214                       # Number of branches executed (Count)
[...]
system.ruby.network.ext_out_link_utilization      4268752                       (Unspecified)
system.ruby.network.flit_network_latency |107235150500                       |211417399000                       | 29322613500                       (Unspecified)
system.ruby.network.flit_queueing_latency |  2231242000                       |  1960194500                       |   150397000                       (Unspecified)
system.ruby.network.flits_injected       |     1014486     23.77%     23.77% |     2953477     69.19%     92.95% |      300795      7.05%    100.00% (Unspecified)
system.ruby.network.flits_injected::total      4268758                       (Unspecified)
system.ruby.network.flits_received       |     1014486     23.77%     23.77% |     2953472     69.19%     92.95% |      300794      7.05%    100.00% (Unspecified)
system.ruby.network.flits_received::total      4268752                       (Unspecified)
system.ruby.network.int_link_utilization     12894742                       (Unspecified)
system.ruby.network.packet_network_latency | 80133282000                       | 69980439000                       | 29322613500                       (Unspecified)
system.ruby.network.packet_queueing_latency |  1810184000                       |   521920500                       |   150397000                       (Unspecified)
system.ruby.network.packets_injected     |      824846     42.29%     42.29% |      824845     42.29%     84.58% |      300795     15.42%    100.00% (Unspecified)
system.ruby.network.packets_injected::total      1950486                       (Unspecified)
system.ruby.network.packets_received     |      824846     42.29%     42.29% |      824844     42.29%     84.58% |      300794     15.42%    100.00% (Unspecified)
system.ruby.network.packets_received::total      1950484                       (Unspecified)
system.ruby.network.routers00.Var_1                 0                       (Unspecified)
system.ruby.network.routers00.Var_2                 0                       (Unspecified)
system.ruby.network.routers00.Var_3                 0                       (Unspecified)
system.ruby.network.routers00.all_counts            0                       (Unspecified)
system.ruby.network.routers00.buffer_reads       763348                       (Unspecified)
system.ruby.network.routers00.buffer_writes       763348                       (Unspecified)
system.ruby.network.routers00.crossbar_activity       763348                       (Unspecified)
system.ruby.network.routers00.detour_counts        54301                       (Unspecified)
system.ruby.network.routers00.regular_var            0                       (Unspecified)
system.ruby.network.routers00.risk_counts            0                       (Unspecified)
system.ruby.network.routers00.sw_input_arbiter_activity       769190                       (Unspecified)
system.ruby.network.routers00.sw_output_arbiter_activity       763348                       (Unspecified)
system.ruby.network.routers01.Var_1                 0                       (Unspecified)
system.ruby.network.routers01.Var_2                 0                       (Unspecified)
system.ruby.network.routers01.Var_3                 0                       (Unspecified)
system.ruby.network.routers01.all_counts            0                       (Unspecified)
system.ruby.network.routers01.buffer_reads      1091904                       (Unspecified)
system.ruby.network.routers01.buffer_writes      1091904                       (Unspecified)
system.ruby.network.routers01.crossbar_activity      1091904                       (Unspecified)
system.ruby.network.routers01.detour_counts        54491                       (Unspecified)
system.ruby.network.routers01.regular_var            0                       (Unspecified)
system.ruby.network.routers01.risk_counts            0                       (Unspecified)
system.ruby.network.routers01.sw_input_arbiter_activity      1104417                       (Unspecified)
system.ruby.network.routers01.sw_output_arbiter_activity      1091904                       (Unspecified)
system.ruby.network.routers02.Var_1                 0                       (Unspecified)
system.ruby.network.routers02.Var_2                 0                       (Unspecified)
system.ruby.network.routers02.Var_3                 0                       (Unspecified)
system.ruby.network.routers02.all_counts            0                       (Unspecified)
system.ruby.network.routers02.buffer_reads      1093743                       (Unspecified)
system.ruby.network.routers02.buffer_writes      1093743                       (Unspecified)
system.ruby.network.routers02.crossbar_activity      1093743                       (Unspecified)
system.ruby.network.routers02.detour_counts        54400                       (Unspecified)
system.ruby.network.routers02.regular_var            0                       (Unspecified)
system.ruby.network.routers02.risk_counts            0                       (Unspecified)
system.ruby.network.routers02.sw_input_arbiter_activity      1105890                       (Unspecified)
system.ruby.network.routers02.sw_output_arbiter_activity      1093743                       (Unspecified)
system.ruby.network.routers03.Var_1                 0                       (Unspecified)
system.ruby.network.routers03.Var_2                 0                       (Unspecified)
system.ruby.network.routers03.Var_3                 0                       (Unspecified)
system.ruby.network.routers03.all_counts            0                       (Unspecified)
system.ruby.network.routers03.buffer_reads       753499                       (Unspecified)
system.ruby.network.routers03.buffer_writes       753499                       (Unspecified)
system.ruby.network.routers03.crossbar_activity       753499                       (Unspecified)
system.ruby.network.routers03.detour_counts        54496                       (Unspecified)
system.ruby.network.routers03.regular_var            0                       (Unspecified)
system.ruby.network.routers03.risk_counts            0                       (Unspecified)
system.ruby.network.routers03.sw_input_arbiter_activity       758753                       (Unspecified)
system.ruby.network.routers03.sw_output_arbiter_activity       753499                       (Unspecified)
system.ruby.network.routers04.Var_1                 0                       (Unspecified)
system.ruby.network.routers04.Var_2                 0                       (Unspecified)
system.ruby.network.routers04.Var_3                 0                       (Unspecified)
system.ruby.network.routers04.all_counts            0                       (Unspecified)
system.ruby.network.routers04.buffer_reads      1065737                       (Unspecified)
system.ruby.network.routers04.buffer_writes      1065737                       (Unspecified)
system.ruby.network.routers04.crossbar_activity      1065737                       (Unspecified)
system.ruby.network.routers04.detour_counts        54477                       (Unspecified)
system.ruby.network.routers04.regular_var            0                       (Unspecified)
system.ruby.network.routers04.risk_counts            0                       (Unspecified)
system.ruby.network.routers04.sw_input_arbiter_activity      1077387                       (Unspecified)
system.ruby.network.routers04.sw_output_arbiter_activity      1065737                       (Unspecified)
system.ruby.network.routers05.Var_1                 0                       (Unspecified)
system.ruby.network.routers05.Var_2                 0                       (Unspecified)
system.ruby.network.routers05.Var_3                 0                       (Unspecified)
system.ruby.network.routers05.all_counts            0                       (Unspecified)
system.ruby.network.routers05.buffer_reads      1393455                       (Unspecified)
system.ruby.network.routers05.buffer_writes      1393455                       (Unspecified)
system.ruby.network.routers05.crossbar_activity      1393455                       (Unspecified)
system.ruby.network.routers05.detour_counts        54447                       (Unspecified)
system.ruby.network.routers05.regular_var            0                       (Unspecified)
system.ruby.network.routers05.risk_counts            0                       (Unspecified)
system.ruby.network.routers05.sw_input_arbiter_activity      1411697                       (Unspecified)
system.ruby.network.routers05.sw_output_arbiter_activity      1393455                       (Unspecified)
system.ruby.network.routers06.Var_1                 0                       (Unspecified)
system.ruby.network.routers06.Var_2                 0                       (Unspecified)
system.ruby.network.routers06.Var_3                 0                       (Unspecified)
system.ruby.network.routers06.all_counts            0                       (Unspecified)
system.ruby.network.routers06.buffer_reads      1391425                       (Unspecified)
system.ruby.network.routers06.buffer_writes      1391425                       (Unspecified)
system.ruby.network.routers06.crossbar_activity      1391425                       (Unspecified)
system.ruby.network.routers06.detour_counts        54475                       (Unspecified)
system.ruby.network.routers06.regular_var            0                       (Unspecified)
system.ruby.network.routers06.risk_counts            0                       (Unspecified)
system.ruby.network.routers06.sw_input_arbiter_activity      1409872                       (Unspecified)
system.ruby.network.routers06.sw_output_arbiter_activity      1391425                       (Unspecified)
system.ruby.network.routers07.Var_1                 0                       (Unspecified)
system.ruby.network.routers07.Var_2                 0                       (Unspecified)
system.ruby.network.routers07.Var_3                 0                       (Unspecified)
system.ruby.network.routers07.all_counts            0                       (Unspecified)
system.ruby.network.routers07.buffer_reads      1053329                       (Unspecified)
system.ruby.network.routers07.buffer_writes      1053329                       (Unspecified)
system.ruby.network.routers07.crossbar_activity      1053329                       (Unspecified)
system.ruby.network.routers07.detour_counts        54566                       (Unspecified)
system.ruby.network.routers07.regular_var            0                       (Unspecified)
system.ruby.network.routers07.risk_counts            0                       (Unspecified)
system.ruby.network.routers07.sw_input_arbiter_activity      1064649                       (Unspecified)
system.ruby.network.routers07.sw_output_arbiter_activity      1053329                       (Unspecified)
system.ruby.network.routers08.Var_1                 0                       (Unspecified)
system.ruby.network.routers08.Var_2                 0                       (Unspecified)
system.ruby.network.routers08.Var_3                 0                       (Unspecified)
system.ruby.network.routers08.all_counts            0                       (Unspecified)
system.ruby.network.routers08.buffer_reads      1062643                       (Unspecified)
system.ruby.network.routers08.buffer_writes      1062643                       (Unspecified)
system.ruby.network.routers08.crossbar_activity      1062643                       (Unspecified)
system.ruby.network.routers08.detour_counts        54481                       (Unspecified)
system.ruby.network.routers08.regular_var            0                       (Unspecified)
system.ruby.network.routers08.risk_counts            0                       (Unspecified)
system.ruby.network.routers08.sw_input_arbiter_activity      1074039                       (Unspecified)
system.ruby.network.routers08.sw_output_arbiter_activity      1062643                       (Unspecified)
system.ruby.network.routers09.Var_1                 0                       (Unspecified)
system.ruby.network.routers09.Var_2                 0                       (Unspecified)
system.ruby.network.routers09.Var_3                 0                       (Unspecified)
system.ruby.network.routers09.all_counts            0                       (Unspecified)
system.ruby.network.routers09.buffer_reads      1394114                       (Unspecified)
system.ruby.network.routers09.buffer_writes      1394114                       (Unspecified)
system.ruby.network.routers09.crossbar_activity      1394114                       (Unspecified)
system.ruby.network.routers09.detour_counts        54350                       (Unspecified)
system.ruby.network.routers09.regular_var            0                       (Unspecified)
system.ruby.network.routers09.risk_counts            0                       (Unspecified)
system.ruby.network.routers09.sw_input_arbiter_activity      1412291                       (Unspecified)
system.ruby.network.routers09.sw_output_arbiter_activity      1394114                       (Unspecified)
system.ruby.network.routers10.Var_1                 0                       (Unspecified)
system.ruby.network.routers10.Var_2                 0                       (Unspecified)
system.ruby.network.routers10.Var_3                 0                       (Unspecified)
system.ruby.network.routers10.all_counts            0                       (Unspecified)
system.ruby.network.routers10.buffer_reads      1390842                       (Unspecified)
system.ruby.network.routers10.buffer_writes      1390842                       (Unspecified)
system.ruby.network.routers10.crossbar_activity      1390842                       (Unspecified)
system.ruby.network.routers10.detour_counts        54398                       (Unspecified)
system.ruby.network.routers10.regular_var            0                       (Unspecified)
system.ruby.network.routers10.risk_counts            0                       (Unspecified)
system.ruby.network.routers10.sw_input_arbiter_activity      1408786                       (Unspecified)
system.ruby.network.routers10.sw_output_arbiter_activity      1390842                       (Unspecified)
system.ruby.network.routers11.Var_1                 0                       (Unspecified)
system.ruby.network.routers11.Var_2                 0                       (Unspecified)
system.ruby.network.routers11.Var_3                 0                       (Unspecified)
system.ruby.network.routers11.all_counts            0                       (Unspecified)
system.ruby.network.routers11.buffer_reads      1050536                       (Unspecified)
system.ruby.network.routers11.buffer_writes      1050536                       (Unspecified)
system.ruby.network.routers11.crossbar_activity      1050536                       (Unspecified)
system.ruby.network.routers11.detour_counts        54624                       (Unspecified)
system.ruby.network.routers11.regular_var            0                       (Unspecified)
system.ruby.network.routers11.risk_counts            0                       (Unspecified)
system.ruby.network.routers11.sw_input_arbiter_activity      1061946                       (Unspecified)
system.ruby.network.routers11.sw_output_arbiter_activity      1050536                       (Unspecified)
system.ruby.network.routers12.Var_1                 0                       (Unspecified)
system.ruby.network.routers12.Var_2                 0                       (Unspecified)
system.ruby.network.routers12.Var_3                 0                       (Unspecified)
system.ruby.network.routers12.all_counts            0                       (Unspecified)
system.ruby.network.routers12.buffer_reads       751814                       (Unspecified)
system.ruby.network.routers12.buffer_writes       751814                       (Unspecified)
system.ruby.network.routers12.crossbar_activity       751814                       (Unspecified)
system.ruby.network.routers12.detour_counts        54531                       (Unspecified)
system.ruby.network.routers12.regular_var            0                       (Unspecified)
system.ruby.network.routers12.risk_counts            0                       (Unspecified)
system.ruby.network.routers12.sw_input_arbiter_activity       757182                       (Unspecified)
system.ruby.network.routers12.sw_output_arbiter_activity       751814                       (Unspecified)
system.ruby.network.routers13.Var_1                 0                       (Unspecified)
system.ruby.network.routers13.Var_2                 0                       (Unspecified)
system.ruby.network.routers13.Var_3                 0                       (Unspecified)
system.ruby.network.routers13.all_counts            0                       (Unspecified)
system.ruby.network.routers13.buffer_reads      1083353                       (Unspecified)
system.ruby.network.routers13.buffer_writes      1083353                       (Unspecified)
system.ruby.network.routers13.crossbar_activity      1083353                       (Unspecified)
system.ruby.network.routers13.detour_counts        54422                       (Unspecified)
system.ruby.network.routers13.regular_var            0                       (Unspecified)
system.ruby.network.routers13.risk_counts            0                       (Unspecified)
system.ruby.network.routers13.sw_input_arbiter_activity      1095683                       (Unspecified)
system.ruby.network.routers13.sw_output_arbiter_activity      1083353                       (Unspecified)
system.ruby.network.routers14.Var_1                 0                       (Unspecified)
system.ruby.network.routers14.Var_2                 0                       (Unspecified)
system.ruby.network.routers14.Var_3                 0                       (Unspecified)
system.ruby.network.routers14.all_counts            0                       (Unspecified)
system.ruby.network.routers14.buffer_reads      1077488                       (Unspecified)
system.ruby.network.routers14.buffer_writes      1077488                       (Unspecified)
system.ruby.network.routers14.crossbar_activity      1077488                       (Unspecified)
system.ruby.network.routers14.detour_counts        54634                       (Unspecified)
system.ruby.network.routers14.regular_var            0                       (Unspecified)
system.ruby.network.routers14.risk_counts            0                       (Unspecified)
system.ruby.network.routers14.sw_input_arbiter_activity      1089403                       (Unspecified)
system.ruby.network.routers14.sw_output_arbiter_activity      1077488                       (Unspecified)
system.ruby.network.routers15.Var_1                 0                       (Unspecified)
system.ruby.network.routers15.Var_2                 0                       (Unspecified)
system.ruby.network.routers15.Var_3                 0                       (Unspecified)
system.ruby.network.routers15.all_counts            0                       (Unspecified)
system.ruby.network.routers15.buffer_reads       746264                       (Unspecified)
system.ruby.network.routers15.buffer_writes       746264                       (Unspecified)
system.ruby.network.routers15.crossbar_activity       746264                       (Unspecified)
system.ruby.network.routers15.detour_counts        54588                       (Unspecified)
system.ruby.network.routers15.regular_var            0                       (Unspecified)
system.ruby.network.routers15.risk_counts            0                       (Unspecified)
system.ruby.network.routers15.sw_input_arbiter_activity       751709                       (Unspecified)
system.ruby.network.routers15.sw_output_arbiter_activity       746264                       (Unspecified)

---------- End Simulation Statistics   ----------
