
---------- Begin Simulation Statistics ----------
simSeconds                                   0.004953                       # Number of seconds simulated (Second)
simTicks                                   4952612000                       # Number of ticks simulated (Tick)
finalTick                                  4952612000                       # Number of ticks from beginning of simulation (restored from checkpoints and never reset) (Tick)
simFreq                                  1000000000000                       # The number of ticks per simulated second ((Tick/Second))
hostSeconds                                    666.86                       # Real time elapsed on the host (Second)
hostTickRate                                  7426745                       # The number of ticks simulated per host second (ticks/s) ((Tick/Second))
hostMemory                                   11459180                       # Number of bytes of host memory used (Byte)
simInsts                                     34766176                       # Number of instructions simulated (Count)
simOps                                       60354064                       # Number of ops (including micro ops) simulated (Count)
hostInstRate                                    52134                       # Simulator instruction rate (inst/s) ((Count/Second))
hostOpRate                                      90505                       # Simulator op (including micro ops) rate (op/s) ((Count/Second))
system.clk_domain.clock                          1000                       # Clock period in ticks (Tick)
system.cpu0.numCycles                         9797225                       # Number of cpu cycles simulated (Cycle)
system.cpu0.numWorkItemsStarted                     0                       # Number of work items this cpu started (Count)
system.cpu0.numWorkItemsCompleted                   0                       # Number of work items this cpu completed (Count)
system.cpu0.instsAdded                        4817002                       # Number of instructions added to the IQ (excludes non-spec) (Count)
system.cpu0.nonSpecInstsAdded                    1099                       # Number of non-speculative instructions added to the IQ (Count)
system.cpu0.instsIssued                       4455356                       # Number of instructions issued (Count)
system.cpu0.squashedInstsIssued                  2870                       # Number of squashed instructions issued (Count)
system.cpu0.squashedInstsExamined             1045972                       # Number of squashed instructions iterated over during squash; mainly for profiling (Count)
system.cpu0.squashedOperandsExamined          2257369                       # Number of squashed operands that are examined and possibly removed from graph (Count)
system.cpu0.squashedNonSpecRemoved                246                       # Number of squashed non-spec instructions that were removed (Count)
system.cpu0.numIssuedDist::samples            8663974                       # Number of insts issued each cycle (Count)
system.cpu0.numIssuedDist::mean              0.514239                       # Number of insts issued each cycle (Count)
system.cpu0.numIssuedDist::stdev             1.451600                       # Number of insts issued each cycle (Count)
system.cpu0.numIssuedDist::underflows               0      0.00%      0.00% # Number of insts issued each cycle (Count)
system.cpu0.numIssuedDist::0                  7418364     85.62%     85.62% # Number of insts issued each cycle (Count)
system.cpu0.numIssuedDist::1                   198661      2.29%     87.92% # Number of insts issued each cycle (Count)
system.cpu0.numIssuedDist::2                   228160      2.63%     90.55% # Number of insts issued each cycle (Count)
system.cpu0.numIssuedDist::3                   239837      2.77%     93.32% # Number of insts issued each cycle (Count)
system.cpu0.numIssuedDist::4                   194458      2.24%     95.56% # Number of insts issued each cycle (Count)
system.cpu0.numIssuedDist::5                   149106      1.72%     97.28% # Number of insts issued each cycle (Count)
system.cpu0.numIssuedDist::6                   128871      1.49%     98.77% # Number of insts issued each cycle (Count)
system.cpu0.numIssuedDist::7                    67860      0.78%     99.55% # Number of insts issued each cycle (Count)
system.cpu0.numIssuedDist::8                    38657      0.45%    100.00% # Number of insts issued each cycle (Count)
system.cpu0.numIssuedDist::overflows                0      0.00%    100.00% # Number of insts issued each cycle (Count)
system.cpu0.numIssuedDist::min_value                0                       # Number of insts issued each cycle (Count)
system.cpu0.numIssuedDist::max_value                8                       # Number of insts issued each cycle (Count)
system.cpu0.numIssuedDist::total              8663974                       # Number of insts issued each cycle (Count)
system.cpu0.statFuBusy::No_OpClass                  0      0.00%      0.00% # attempts to use FU when none available (Count)
system.cpu0.statFuBusy::IntAlu                  44088     66.80%     66.80% # attempts to use FU when none available (Count)
system.cpu0.statFuBusy::IntMult                     0      0.00%     66.80% # attempts to use FU when none available (Count)
system.cpu0.statFuBusy::IntDiv                      0      0.00%     66.80% # attempts to use FU when none available (Count)
system.cpu0.statFuBusy::FloatAdd                    0      0.00%     66.80% # attempts to use FU when none available (Count)
system.cpu0.statFuBusy::FloatCmp                    0      0.00%     66.80% # attempts to use FU when none available (Count)
system.cpu0.statFuBusy::FloatCvt                    3      0.00%     66.81% # attempts to use FU when none available (Count)
system.cpu0.statFuBusy::FloatMult                   0      0.00%     66.81% # attempts to use FU when none available (Count)
system.cpu0.statFuBusy::FloatMultAcc                0      0.00%     66.81% # attempts to use FU when none available (Count)
system.cpu0.statFuBusy::FloatDiv                    0      0.00%     66.81% # attempts to use FU when none available (Count)
system.cpu0.statFuBusy::FloatMisc                   0      0.00%     66.81% # attempts to use FU when none available (Count)
system.cpu0.statFuBusy::FloatSqrt                   0      0.00%     66.81% # attempts to use FU when none available (Count)
system.cpu0.statFuBusy::SimdAdd                     0      0.00%     66.81% # attempts to use FU when none available (Count)
system.cpu0.statFuBusy::SimdAddAcc                  0      0.00%     66.81% # attempts to use FU when none available (Count)
system.cpu0.statFuBusy::SimdAlu                   123      0.19%     66.99% # attempts to use FU when none available (Count)
system.cpu0.statFuBusy::SimdCmp                     0      0.00%     66.99% # attempts to use FU when none available (Count)
system.cpu0.statFuBusy::SimdCvt                   120      0.18%     67.17% # attempts to use FU when none available (Count)
system.cpu0.statFuBusy::SimdMisc                    1      0.00%     67.18% # attempts to use FU when none available (Count)
system.cpu0.statFuBusy::SimdMult                    0      0.00%     67.18% # attempts to use FU when none available (Count)
system.cpu0.statFuBusy::SimdMultAcc                 0      0.00%     67.18% # attempts to use FU when none available (Count)
system.cpu0.statFuBusy::SimdShift                 134      0.20%     67.38% # attempts to use FU when none available (Count)
system.cpu0.statFuBusy::SimdShiftAcc                0      0.00%     67.38% # attempts to use FU when none available (Count)
system.cpu0.statFuBusy::SimdDiv                     0      0.00%     67.38% # attempts to use FU when none available (Count)
system.cpu0.statFuBusy::SimdSqrt                    0      0.00%     67.38% # attempts to use FU when none available (Count)
system.cpu0.statFuBusy::SimdFloatAdd                0      0.00%     67.38% # attempts to use FU when none available (Count)
system.cpu0.statFuBusy::SimdFloatAlu                0      0.00%     67.38% # attempts to use FU when none available (Count)
system.cpu0.statFuBusy::SimdFloatCmp                0      0.00%     67.38% # attempts to use FU when none available (Count)
system.cpu0.statFuBusy::SimdFloatCvt                0      0.00%     67.38% # attempts to use FU when none available (Count)
system.cpu0.statFuBusy::SimdFloatDiv                0      0.00%     67.38% # attempts to use FU when none available (Count)
system.cpu0.statFuBusy::SimdFloatMisc               0      0.00%     67.38% # attempts to use FU when none available (Count)
system.cpu0.statFuBusy::SimdFloatMult               0      0.00%     67.38% # attempts to use FU when none available (Count)
system.cpu0.statFuBusy::SimdFloatMultAcc            0      0.00%     67.38% # attempts to use FU when none available (Count)
system.cpu0.statFuBusy::SimdFloatSqrt               0      0.00%     67.38% # attempts to use FU when none available (Count)
system.cpu0.statFuBusy::SimdReduceAdd               0      0.00%     67.38% # attempts to use FU when none available (Count)
system.cpu0.statFuBusy::SimdReduceAlu               0      0.00%     67.38% # attempts to use FU when none available (Count)
system.cpu0.statFuBusy::SimdReduceCmp               0      0.00%     67.38% # attempts to use FU when none available (Count)
system.cpu0.statFuBusy::SimdFloatReduceAdd            0      0.00%     67.38% # attempts to use FU when none available (Count)
system.cpu0.statFuBusy::SimdFloatReduceCmp            0      0.00%     67.38% # attempts to use FU when none available (Count)
system.cpu0.statFuBusy::SimdAes                     0      0.00%     67.38% # attempts to use FU when none available (Count)
system.cpu0.statFuBusy::SimdAesMix                  0      0.00%     67.38% # attempts to use FU when none available (Count)
system.cpu0.statFuBusy::SimdSha1Hash                0      0.00%     67.38% # attempts to use FU when none available (Count)
system.cpu0.statFuBusy::SimdSha1Hash2               0      0.00%     67.38% # attempts to use FU when none available (Count)
system.cpu0.statFuBusy::SimdSha256Hash              0      0.00%     67.38% # attempts to use FU when none available (Count)
system.cpu0.statFuBusy::SimdSha256Hash2             0      0.00%     67.38% # attempts to use FU when none available (Count)
system.cpu0.statFuBusy::SimdShaSigma2               0      0.00%     67.38% # attempts to use FU when none available (Count)
system.cpu0.statFuBusy::SimdShaSigma3               0      0.00%     67.38% # attempts to use FU when none available (Count)
system.cpu0.statFuBusy::SimdPredAlu                 0      0.00%     67.38% # attempts to use FU when none available (Count)
system.cpu0.statFuBusy::MemRead                 11988     18.16%     85.54% # attempts to use FU when none available (Count)
system.cpu0.statFuBusy::MemWrite                 7699     11.67%     97.21% # attempts to use FU when none available (Count)
system.cpu0.statFuBusy::FloatMemRead             1406      2.13%     99.34% # attempts to use FU when none available (Count)
system.cpu0.statFuBusy::FloatMemWrite             436      0.66%    100.00% # attempts to use FU when none available (Count)
system.cpu0.statFuBusy::IprAccess                   0      0.00%    100.00% # attempts to use FU when none available (Count)
system.cpu0.statFuBusy::InstPrefetch                0      0.00%    100.00% # attempts to use FU when none available (Count)
system.cpu0.statIssuedInstType_0::No_OpClass        18150      0.41%      0.41% # Number of instructions issued per FU type, per thread (Count)
system.cpu0.statIssuedInstType_0::IntAlu      3493581     78.41%     78.82% # Number of instructions issued per FU type, per thread (Count)
system.cpu0.statIssuedInstType_0::IntMult           35      0.00%     78.82% # Number of instructions issued per FU type, per thread (Count)
system.cpu0.statIssuedInstType_0::IntDiv        38179      0.86%     79.68% # Number of instructions issued per FU type, per thread (Count)
system.cpu0.statIssuedInstType_0::FloatAdd         4309      0.10%     79.77% # Number of instructions issued per FU type, per thread (Count)
system.cpu0.statIssuedInstType_0::FloatCmp            0      0.00%     79.77% # Number of instructions issued per FU type, per thread (Count)
system.cpu0.statIssuedInstType_0::FloatCvt         1686      0.04%     79.81% # Number of instructions issued per FU type, per thread (Count)
system.cpu0.statIssuedInstType_0::FloatMult            0      0.00%     79.81% # Number of instructions issued per FU type, per thread (Count)
system.cpu0.statIssuedInstType_0::FloatMultAcc            0      0.00%     79.81% # Number of instructions issued per FU type, per thread (Count)
system.cpu0.statIssuedInstType_0::FloatDiv            0      0.00%     79.81% # Number of instructions issued per FU type, per thread (Count)
system.cpu0.statIssuedInstType_0::FloatMisc            0      0.00%     79.81% # Number of instructions issued per FU type, per thread (Count)
system.cpu0.statIssuedInstType_0::FloatSqrt            0      0.00%     79.81% # Number of instructions issued per FU type, per thread (Count)
system.cpu0.statIssuedInstType_0::SimdAdd         8196      0.18%     80.00% # Number of instructions issued per FU type, per thread (Count)
system.cpu0.statIssuedInstType_0::SimdAddAcc            0      0.00%     80.00% # Number of instructions issued per FU type, per thread (Count)
system.cpu0.statIssuedInstType_0::SimdAlu        16709      0.38%     80.37% # Number of instructions issued per FU type, per thread (Count)
system.cpu0.statIssuedInstType_0::SimdCmp            0      0.00%     80.37% # Number of instructions issued per FU type, per thread (Count)
system.cpu0.statIssuedInstType_0::SimdCvt        18294      0.41%     80.78% # Number of instructions issued per FU type, per thread (Count)
system.cpu0.statIssuedInstType_0::SimdMisc         8692      0.20%     80.98% # Number of instructions issued per FU type, per thread (Count)
system.cpu0.statIssuedInstType_0::SimdMult            0      0.00%     80.98% # Number of instructions issued per FU type, per thread (Count)
system.cpu0.statIssuedInstType_0::SimdMultAcc            0      0.00%     80.98% # Number of instructions issued per FU type, per thread (Count)
system.cpu0.statIssuedInstType_0::SimdShift         2447      0.05%     81.03% # Number of instructions issued per FU type, per thread (Count)
system.cpu0.statIssuedInstType_0::SimdShiftAcc            0      0.00%     81.03% # Number of instructions issued per FU type, per thread (Count)
system.cpu0.statIssuedInstType_0::SimdDiv            0      0.00%     81.03% # Number of instructions issued per FU type, per thread (Count)
system.cpu0.statIssuedInstType_0::SimdSqrt            0      0.00%     81.03% # Number of instructions issued per FU type, per thread (Count)
system.cpu0.statIssuedInstType_0::SimdFloatAdd            0      0.00%     81.03% # Number of instructions issued per FU type, per thread (Count)
system.cpu0.statIssuedInstType_0::SimdFloatAlu            0      0.00%     81.03% # Number of instructions issued per FU type, per thread (Count)
system.cpu0.statIssuedInstType_0::SimdFloatCmp            0      0.00%     81.03% # Number of instructions issued per FU type, per thread (Count)
system.cpu0.statIssuedInstType_0::SimdFloatCvt            0      0.00%     81.03% # Number of instructions issued per FU type, per thread (Count)
system.cpu0.statIssuedInstType_0::SimdFloatDiv            0      0.00%     81.03% # Number of instructions issued per FU type, per thread (Count)
system.cpu0.statIssuedInstType_0::SimdFloatMisc            0      0.00%     81.03% # Number of instructions issued per FU type, per thread (Count)
system.cpu0.statIssuedInstType_0::SimdFloatMult            0      0.00%     81.03% # Number of instructions issued per FU type, per thread (Count)
system.cpu0.statIssuedInstType_0::SimdFloatMultAcc            0      0.00%     81.03% # Number of instructions issued per FU type, per thread (Count)
system.cpu0.statIssuedInstType_0::SimdFloatSqrt            0      0.00%     81.03% # Number of instructions issued per FU type, per thread (Count)
system.cpu0.statIssuedInstType_0::SimdReduceAdd            0      0.00%     81.03% # Number of instructions issued per FU type, per thread (Count)
system.cpu0.statIssuedInstType_0::SimdReduceAlu            0      0.00%     81.03% # Number of instructions issued per FU type, per thread (Count)
system.cpu0.statIssuedInstType_0::SimdReduceCmp            0      0.00%     81.03% # Number of instructions issued per FU type, per thread (Count)
system.cpu0.statIssuedInstType_0::SimdFloatReduceAdd            0      0.00%     81.03% # Number of instructions issued per FU type, per thread (Count)
system.cpu0.statIssuedInstType_0::SimdFloatReduceCmp            0      0.00%     81.03% # Number of instructions issued per FU type, per thread (Count)
system.cpu0.statIssuedInstType_0::SimdAes            0      0.00%     81.03% # Number of instructions issued per FU type, per thread (Count)
system.cpu0.statIssuedInstType_0::SimdAesMix            0      0.00%     81.03% # Number of instructions issued per FU type, per thread (Count)
system.cpu0.statIssuedInstType_0::SimdSha1Hash            0      0.00%     81.03% # Number of instructions issued per FU type, per thread (Count)
system.cpu0.statIssuedInstType_0::SimdSha1Hash2            0      0.00%     81.03% # Number of instructions issued per FU type, per thread (Count)
system.cpu0.statIssuedInstType_0::SimdSha256Hash            0      0.00%     81.03% # Number of instructions issued per FU type, per thread (Count)
system.cpu0.statIssuedInstType_0::SimdSha256Hash2            0      0.00%     81.03% # Number of instructions issued per FU type, per thread (Count)
system.cpu0.statIssuedInstType_0::SimdShaSigma2            0      0.00%     81.03% # Number of instructions issued per FU type, per thread (Count)
system.cpu0.statIssuedInstType_0::SimdShaSigma3            0      0.00%     81.03% # Number of instructions issued per FU type, per thread (Count)
system.cpu0.statIssuedInstType_0::SimdPredAlu            0      0.00%     81.03% # Number of instructions issued per FU type, per thread (Count)
system.cpu0.statIssuedInstType_0::MemRead       605219     13.58%     94.62% # Number of instructions issued per FU type, per thread (Count)
system.cpu0.statIssuedInstType_0::MemWrite       188764      4.24%     98.85% # Number of instructions issued per FU type, per thread (Count)
system.cpu0.statIssuedInstType_0::FloatMemRead        33193      0.75%     99.60% # Number of instructions issued per FU type, per thread (Count)
system.cpu0.statIssuedInstType_0::FloatMemWrite        17902      0.40%    100.00% # Number of instructions issued per FU type, per thread (Count)
system.cpu0.statIssuedInstType_0::IprAccess            0      0.00%    100.00% # Number of instructions issued per FU type, per thread (Count)
system.cpu0.statIssuedInstType_0::InstPrefetch            0      0.00%    100.00% # Number of instructions issued per FU type, per thread (Count)
system.cpu0.statIssuedInstType_0::total       4455356                       # Number of instructions issued per FU type, per thread (Count)
system.cpu0.issueRate                        0.454757                       # Inst issue rate ((Count/Cycle))
system.cpu0.fuBusy                              65998                       # FU busy when requested (Count)
system.cpu0.fuBusyRate                       0.014813                       # FU busy rate (busy events/executed inst) ((Count/Count))
system.cpu0.intInstQueueReads                17415955                       # Number of integer instruction queue reads (Count)
system.cpu0.intInstQueueWrites                5691623                       # Number of integer instruction queue writes (Count)
system.cpu0.intInstQueueWakeupAccesses        4286494                       # Number of integer instruction queue wakeup accesses (Count)
system.cpu0.fpInstQueueReads                   227599                       # Number of floating instruction queue reads (Count)
system.cpu0.fpInstQueueWrites                  172595                       # Number of floating instruction queue writes (Count)
system.cpu0.fpInstQueueWakeupAccesses          108830                       # Number of floating instruction queue wakeup accesses (Count)
system.cpu0.vecInstQueueReads                       0                       # Number of vector instruction queue reads (Count)
system.cpu0.vecInstQueueWrites                      0                       # Number of vector instruction queue writes (Count)
system.cpu0.vecInstQueueWakeupAccesses              0                       # Number of vector instruction queue wakeup accesses (Count)
system.cpu0.intAluAccesses                    4388437                       # Number of integer alu accesses (Count)
system.cpu0.fpAluAccesses                      114767                       # Number of floating point alu accesses (Count)
system.cpu0.vecAluAccesses                          0                       # Number of vector alu accesses (Count)
system.cpu0.numInsts                          4424839                       # Number of executed instructions (Count)
system.cpu0.numLoadInsts                       630731                       # Number of load instructions executed (Count)
system.cpu0.numSquashedInsts                    30517                       # Number of squashed instructions skipped in execute (Count)
system.cpu0.numSwp                                  0                       # Number of swp insts executed (Count)
system.cpu0.numNop                                  0                       # Number of nop insts executed (Count)
system.cpu0.numRefs                            835413                       # Number of memory reference insts executed (Count)
system.cpu0.numBranches                        399569                       # Number of branches executed (Count)
system.cpu0.numStoreInsts                      204682                       # Number of stores executed (Count)
system.cpu0.numRate                          0.451642                       # Inst execution rate ((Count/Cycle))
system.cpu0.timesIdled                           2358                       # Number of times that the entire CPU went into an idle state and unscheduled itself (Count)
system.cpu0.idleCycles                        1133251                       # Total number of cycles that the CPU has spent unscheduled due to idling (Cycle)
system.cpu0.committedInsts                    2172886                       # Number of Instructions Simulated (Count)
system.cpu0.committedOps                      3772129                       # Number of Ops (including micro ops) Simulated (Count)
system.cpu0.cpi                              4.508854                       # CPI: Cycles Per Instruction ((Cycle/Count))
system.cpu0.totalCpi                         4.508854                       # CPI: Total CPI of All Threads ((Cycle/Count))
system.cpu0.ipc                              0.221786                       # IPC: Instructions Per Cycle ((Count/Cycle))
system.cpu0.totalIpc                         0.221786                       # IPC: Total IPC of All Threads ((Count/Cycle))
system.cpu0.intRegfileReads                   5995984                       # Number of integer regfile reads (Count)
system.cpu0.intRegfileWrites                  3438277                       # Number of integer regfile writes (Count)
system.cpu0.fpRegfileReads                     147282                       # Number of floating regfile reads (Count)
system.cpu0.fpRegfileWrites                     81935                       # Number of floating regfile writes (Count)
system.cpu0.ccRegfileReads                    2518799                       # number of cc regfile reads (Count)
system.cpu0.ccRegfileWrites                   2045619                       # number of cc regfile writes (Count)
system.cpu0.miscRegfileReads                  1678948                       # number of misc regfile reads (Count)
system.cpu0.miscRegfileWrites                     846                       # number of misc regfile writes (Count)
system.cpu0.MemDepUnit__0.insertedLoads        658378                       # Number of loads inserted to the mem dependence unit. (Count)
system.cpu0.MemDepUnit__0.insertedStores       216750                       # Number of stores inserted to the mem dependence unit. (Count)
system.cpu0.MemDepUnit__0.conflictingLoads        18472                       # Number of conflicting loads. (Count)
system.cpu0.MemDepUnit__0.conflictingStores         9224                       # Number of conflicting stores. (Count)
system.cpu0.MemDepUnit__1.insertedLoads             0                       # Number of loads inserted to the mem dependence unit. (Count)
system.cpu0.MemDepUnit__1.insertedStores            0                       # Number of stores inserted to the mem dependence unit. (Count)
system.cpu0.MemDepUnit__1.conflictingLoads            0                       # Number of conflicting loads. (Count)
system.cpu0.MemDepUnit__1.conflictingStores            0                       # Number of conflicting stores. (Count)
system.cpu0.MemDepUnit__2.insertedLoads             0                       # Number of loads inserted to the mem dependence unit. (Count)
system.cpu0.MemDepUnit__2.insertedStores            0                       # Number of stores inserted to the mem dependence unit. (Count)
system.cpu0.MemDepUnit__2.conflictingLoads            0                       # Number of conflicting loads. (Count)
system.cpu0.MemDepUnit__2.conflictingStores            0                       # Number of conflicting stores. (Count)
system.cpu0.MemDepUnit__3.insertedLoads             0                       # Number of loads inserted to the mem dependence unit. (Count)
system.cpu0.MemDepUnit__3.insertedStores            0                       # Number of stores inserted to the mem dependence unit. (Count)
system.cpu0.MemDepUnit__3.conflictingLoads            0                       # Number of conflicting loads. (Count)
system.cpu0.MemDepUnit__3.conflictingStores            0                       # Number of conflicting stores. (Count)
system.cpu0.branchPred.lookups                 515964                       # Number of BP lookups (Count)
system.cpu0.branchPred.condPredicted           456801                       # Number of conditional branches predicted (Count)
system.cpu0.branchPred.condIncorrect            17166                       # Number of conditional branches incorrect (Count)
system.cpu0.branchPred.BTBLookups              271897                       # Number of BTB lookups (Count)
system.cpu0.branchPred.BTBUpdates                8693                       # Number of BTB updates (Count)
system.cpu0.branchPred.BTBHits                 267835                       # Number of BTB hits (Count)
system.cpu0.branchPred.BTBHitRatio           0.985061                       # BTB Hit Ratio (Ratio)
system.cpu0.branchPred.RASUsed                  13415                       # Number of times the RAS was used to get a target. (Count)
system.cpu0.branchPred.RASIncorrect                 7                       # Number of incorrect RAS predictions. (Count)
system.cpu0.branchPred.indirectLookups           9893                       # Number of indirect predictor lookups. (Count)
system.cpu0.branchPred.indirectHits              5161                       # Number of indirect target hits. (Count)
system.cpu0.branchPred.indirectMisses            4732                       # Number of indirect misses. (Count)
system.cpu0.branchPred.indirectMispredicted         1180                       # Number of mispredicted indirect branches. (Count)
system.cpu0.commit.commitSquashedInsts        1036960                       # The number of squashed insts skipped by commit (Count)
system.cpu0.commit.commitNonSpecStalls            853                       # The number of times commit has been forced to stall to communicate backwards (Count)
system.cpu0.commit.branchMispredicts            18403                       # The number of times a branch was mispredicted (Count)
system.cpu0.commit.numCommittedDist::samples      8513621                       # Number of insts commited each cycle (Count)
system.cpu0.commit.numCommittedDist::mean     0.443070                       # Number of insts commited each cycle (Count)
system.cpu0.commit.numCommittedDist::stdev     1.517717                       # Number of insts commited each cycle (Count)
system.cpu0.commit.numCommittedDist::underflows            0      0.00%      0.00% # Number of insts commited each cycle (Count)
system.cpu0.commit.numCommittedDist::0        7553416     88.72%     88.72% # Number of insts commited each cycle (Count)
system.cpu0.commit.numCommittedDist::1         230215      2.70%     91.43% # Number of insts commited each cycle (Count)
system.cpu0.commit.numCommittedDist::2          92994      1.09%     92.52% # Number of insts commited each cycle (Count)
system.cpu0.commit.numCommittedDist::3         241914      2.84%     95.36% # Number of insts commited each cycle (Count)
system.cpu0.commit.numCommittedDist::4          45595      0.54%     95.89% # Number of insts commited each cycle (Count)
system.cpu0.commit.numCommittedDist::5          99378      1.17%     97.06% # Number of insts commited each cycle (Count)
system.cpu0.commit.numCommittedDist::6          15572      0.18%     97.25% # Number of insts commited each cycle (Count)
system.cpu0.commit.numCommittedDist::7          18814      0.22%     97.47% # Number of insts commited each cycle (Count)
system.cpu0.commit.numCommittedDist::8         215723      2.53%    100.00% # Number of insts commited each cycle (Count)
system.cpu0.commit.numCommittedDist::overflows            0      0.00%    100.00% # Number of insts commited each cycle (Count)
system.cpu0.commit.numCommittedDist::min_value            0                       # Number of insts commited each cycle (Count)
system.cpu0.commit.numCommittedDist::max_value            8                       # Number of insts commited each cycle (Count)
system.cpu0.commit.numCommittedDist::total      8513621                       # Number of insts commited each cycle (Count)
system.cpu0.commit.instsCommitted             2172886                       # Number of instructions committed (Count)
system.cpu0.commit.opsCommitted               3772129                       # Number of ops (including micro ops) committed (Count)
system.cpu0.commit.memRefs                     700181                       # Number of memory references committed (Count)
system.cpu0.commit.loads                       521032                       # Number of loads committed (Count)
system.cpu0.commit.amos                             0                       # Number of atomic instructions committed (Count)
system.cpu0.commit.membars                          2                       # Number of memory barriers committed (Count)
system.cpu0.commit.branches                    363718                       # Number of branches committed (Count)
system.cpu0.commit.vectorInstructions               0                       # Number of committed Vector instructions. (Count)
system.cpu0.commit.floating                     80373                       # Number of committed floating point instructions. (Count)
system.cpu0.commit.integer                    3713390                       # Number of committed integer instructions. (Count)
system.cpu0.commit.functionCalls                 9592                       # Number of function calls committed. (Count)
system.cpu0.commit.committedInstType_0::No_OpClass        10772      0.29%      0.29% # Class of committed instruction (Count)
system.cpu0.commit.committedInstType_0::IntAlu      2980762     79.02%     79.31% # Class of committed instruction (Count)
system.cpu0.commit.committedInstType_0::IntMult           29      0.00%     79.31% # Class of committed instruction (Count)
system.cpu0.commit.committedInstType_0::IntDiv        35830      0.95%     80.26% # Class of committed instruction (Count)
system.cpu0.commit.committedInstType_0::FloatAdd         3175      0.08%     80.34% # Class of committed instruction (Count)
system.cpu0.commit.committedInstType_0::FloatCmp            0      0.00%     80.34% # Class of committed instruction (Count)
system.cpu0.commit.committedInstType_0::FloatCvt         1504      0.04%     80.38% # Class of committed instruction (Count)
system.cpu0.commit.committedInstType_0::FloatMult            0      0.00%     80.38% # Class of committed instruction (Count)
system.cpu0.commit.committedInstType_0::FloatMultAcc            0      0.00%     80.38% # Class of committed instruction (Count)
system.cpu0.commit.committedInstType_0::FloatDiv            0      0.00%     80.38% # Class of committed instruction (Count)
system.cpu0.commit.committedInstType_0::FloatMisc            0      0.00%     80.38% # Class of committed instruction (Count)
system.cpu0.commit.committedInstType_0::FloatSqrt            0      0.00%     80.38% # Class of committed instruction (Count)
system.cpu0.commit.committedInstType_0::SimdAdd         6610      0.18%     80.56% # Class of committed instruction (Count)
system.cpu0.commit.committedInstType_0::SimdAddAcc            0      0.00%     80.56% # Class of committed instruction (Count)
system.cpu0.commit.committedInstType_0::SimdAlu        11924      0.32%     80.87% # Class of committed instruction (Count)
system.cpu0.commit.committedInstType_0::SimdCmp            0      0.00%     80.87% # Class of committed instruction (Count)
system.cpu0.commit.committedInstType_0::SimdCvt        12922      0.34%     81.21% # Class of committed instruction (Count)
system.cpu0.commit.committedInstType_0::SimdMisc         7067      0.19%     81.40% # Class of committed instruction (Count)
system.cpu0.commit.committedInstType_0::SimdMult            0      0.00%     81.40% # Class of committed instruction (Count)
system.cpu0.commit.committedInstType_0::SimdMultAcc            0      0.00%     81.40% # Class of committed instruction (Count)
system.cpu0.commit.committedInstType_0::SimdShift         1353      0.04%     81.44% # Class of committed instruction (Count)
system.cpu0.commit.committedInstType_0::SimdShiftAcc            0      0.00%     81.44% # Class of committed instruction (Count)
system.cpu0.commit.committedInstType_0::SimdDiv            0      0.00%     81.44% # Class of committed instruction (Count)
system.cpu0.commit.committedInstType_0::SimdSqrt            0      0.00%     81.44% # Class of committed instruction (Count)
system.cpu0.commit.committedInstType_0::SimdFloatAdd            0      0.00%     81.44% # Class of committed instruction (Count)
system.cpu0.commit.committedInstType_0::SimdFloatAlu            0      0.00%     81.44% # Class of committed instruction (Count)
system.cpu0.commit.committedInstType_0::SimdFloatCmp            0      0.00%     81.44% # Class of committed instruction (Count)
system.cpu0.commit.committedInstType_0::SimdFloatCvt            0      0.00%     81.44% # Class of committed instruction (Count)
system.cpu0.commit.committedInstType_0::SimdFloatDiv            0      0.00%     81.44% # Class of committed instruction (Count)
system.cpu0.commit.committedInstType_0::SimdFloatMisc            0      0.00%     81.44% # Class of committed instruction (Count)
system.cpu0.commit.committedInstType_0::SimdFloatMult            0      0.00%     81.44% # Class of committed instruction (Count)
system.cpu0.commit.committedInstType_0::SimdFloatMultAcc            0      0.00%     81.44% # Class of committed instruction (Count)
system.cpu0.commit.committedInstType_0::SimdFloatSqrt            0      0.00%     81.44% # Class of committed instruction (Count)
system.cpu0.commit.committedInstType_0::SimdReduceAdd            0      0.00%     81.44% # Class of committed instruction (Count)
system.cpu0.commit.committedInstType_0::SimdReduceAlu            0      0.00%     81.44% # Class of committed instruction (Count)
system.cpu0.commit.committedInstType_0::SimdReduceCmp            0      0.00%     81.44% # Class of committed instruction (Count)
system.cpu0.commit.committedInstType_0::SimdFloatReduceAdd            0      0.00%     81.44% # Class of committed instruction (Count)
system.cpu0.commit.committedInstType_0::SimdFloatReduceCmp            0      0.00%     81.44% # Class of committed instruction (Count)
system.cpu0.commit.committedInstType_0::SimdAes            0      0.00%     81.44% # Class of committed instruction (Count)
system.cpu0.commit.committedInstType_0::SimdAesMix            0      0.00%     81.44% # Class of committed instruction (Count)
system.cpu0.commit.committedInstType_0::SimdSha1Hash            0      0.00%     81.44% # Class of committed instruction (Count)
system.cpu0.commit.committedInstType_0::SimdSha1Hash2            0      0.00%     81.44% # Class of committed instruction (Count)
system.cpu0.commit.committedInstType_0::SimdSha256Hash            0      0.00%     81.44% # Class of committed instruction (Count)
system.cpu0.commit.committedInstType_0::SimdSha256Hash2            0      0.00%     81.44% # Class of committed instruction (Count)
system.cpu0.commit.committedInstType_0::SimdShaSigma2            0      0.00%     81.44% # Class of committed instruction (Count)
system.cpu0.commit.committedInstType_0::SimdShaSigma3            0      0.00%     81.44% # Class of committed instruction (Count)
system.cpu0.commit.committedInstType_0::SimdPredAlu            0      0.00%     81.44% # Class of committed instruction (Count)
system.cpu0.commit.committedInstType_0::MemRead       499997     13.26%     94.69% # Class of committed instruction (Count)
system.cpu0.commit.committedInstType_0::MemWrite       165235      4.38%     99.07% # Class of committed instruction (Count)
system.cpu0.commit.committedInstType_0::FloatMemRead        21035      0.56%     99.63% # Class of committed instruction (Count)
system.cpu0.commit.committedInstType_0::FloatMemWrite        13914      0.37%    100.00% # Class of committed instruction (Count)
system.cpu0.commit.committedInstType_0::IprAccess            0      0.00%    100.00% # Class of committed instruction (Count)
system.cpu0.commit.committedInstType_0::InstPrefetch            0      0.00%    100.00% # Class of committed instruction (Count)
system.cpu0.commit.committedInstType_0::total      3772129                       # Class of committed instruction (Count)
system.cpu0.commit.commitEligibleSamples       215723                       # number cycles where commit BW limit reached (Cycle)
system.cpu0.decode.idleCycles                  469336                       # Number of cycles decode is idle (Cycle)
system.cpu0.decode.blockedCycles              7460012                       # Number of cycles decode is blocked (Cycle)
system.cpu0.decode.runCycles                   520937                       # Number of cycles decode is running (Cycle)
system.cpu0.decode.unblockCycles               194565                       # Number of cycles decode is unblocking (Cycle)
system.cpu0.decode.squashCycles                 19124                       # Number of cycles decode is squashing (Cycle)
system.cpu0.decode.branchResolved              253886                       # Number of times decode resolved a branch (Count)
system.cpu0.decode.branchMispred                 1203                       # Number of times decode detected a branch misprediction (Count)
system.cpu0.decode.decodedInsts               5002652                       # Number of instructions handled by decode (Count)
system.cpu0.decode.squashedInsts                 5646                       # Number of squashed instructions handled by decode (Count)
system.cpu0.fetch.icacheStallCycles            457021                       # Number of cycles fetch is stalled on an Icache miss (Cycle)
system.cpu0.fetch.insts                       3014793                       # Number of instructions fetch has processed (Count)
system.cpu0.fetch.branches                     515964                       # Number of branches that fetch encountered (Count)
system.cpu0.fetch.predictedBranches            286411                       # Number of branches that fetch has predicted taken (Count)
system.cpu0.fetch.cycles                      7949709                       # Number of cycles fetch has run and was not squashing or blocked (Cycle)
system.cpu0.fetch.squashCycles                  40610                       # Number of cycles fetch has spent squashing (Cycle)
system.cpu0.fetch.miscStallCycles               15759                       # Number of cycles fetch has spent waiting on interrupts, or bad addresses, or out of MSHRs (Cycle)
system.cpu0.fetch.pendingTrapStallCycles        15981                       # Number of stall cycles due to pending traps (Cycle)
system.cpu0.fetch.icacheWaitRetryStallCycles       205199                       # Number of stall cycles due to full MSHR (Cycle)
system.cpu0.fetch.cacheLines                   266026                       # Number of cache lines fetched (Count)
system.cpu0.fetch.icacheSquashes                 4752                       # Number of outstanding Icache misses that were squashed (Count)
system.cpu0.fetch.nisnDist::samples           8663974                       # Number of instructions fetched each cycle (Total) (Count)
system.cpu0.fetch.nisnDist::mean             0.612799                       # Number of instructions fetched each cycle (Total) (Count)
system.cpu0.fetch.nisnDist::stdev            1.969609                       # Number of instructions fetched each cycle (Total) (Count)
system.cpu0.fetch.nisnDist::underflows              0      0.00%      0.00% # Number of instructions fetched each cycle (Total) (Count)
system.cpu0.fetch.nisnDist::0                 7785754     89.86%     89.86% # Number of instructions fetched each cycle (Total) (Count)
system.cpu0.fetch.nisnDist::1                   41945      0.48%     90.35% # Number of instructions fetched each cycle (Total) (Count)
system.cpu0.fetch.nisnDist::2                   39941      0.46%     90.81% # Number of instructions fetched each cycle (Total) (Count)
system.cpu0.fetch.nisnDist::3                   68232      0.79%     91.60% # Number of instructions fetched each cycle (Total) (Count)
system.cpu0.fetch.nisnDist::4                  137743      1.59%     93.19% # Number of instructions fetched each cycle (Total) (Count)
system.cpu0.fetch.nisnDist::5                   60180      0.69%     93.88% # Number of instructions fetched each cycle (Total) (Count)
system.cpu0.fetch.nisnDist::6                   33414      0.39%     94.27% # Number of instructions fetched each cycle (Total) (Count)
system.cpu0.fetch.nisnDist::7                   43725      0.50%     94.77% # Number of instructions fetched each cycle (Total) (Count)
system.cpu0.fetch.nisnDist::8                  453040      5.23%    100.00% # Number of instructions fetched each cycle (Total) (Count)
system.cpu0.fetch.nisnDist::overflows               0      0.00%    100.00% # Number of instructions fetched each cycle (Total) (Count)
system.cpu0.fetch.nisnDist::min_value               0                       # Number of instructions fetched each cycle (Total) (Count)
system.cpu0.fetch.nisnDist::max_value               8                       # Number of instructions fetched each cycle (Total) (Count)
system.cpu0.fetch.nisnDist::total             8663974                       # Number of instructions fetched each cycle (Total) (Count)
system.cpu0.fetch.branchRate                 0.052664                       # Number of branch fetches per cycle (Ratio)
system.cpu0.fetch.rate                       0.307719                       # Number of inst fetches per cycle ((Count/Cycle))
system.cpu0.iew.idleCycles                          0                       # Number of cycles IEW is idle (Cycle)
system.cpu0.iew.squashCycles                    19124                       # Number of cycles IEW is squashing (Cycle)
system.cpu0.iew.blockCycles                   4919035                       # Number of cycles IEW is blocking (Cycle)
system.cpu0.iew.unblockCycles                  152318                       # Number of cycles IEW is unblocking (Cycle)
system.cpu0.iew.dispatchedInsts               4818101                       # Number of instructions dispatched to IQ (Count)
system.cpu0.iew.dispSquashedInsts                1069                       # Number of squashed instructions skipped by dispatch (Count)
system.cpu0.iew.dispLoadInsts                  658378                       # Number of dispatched load instructions (Count)
system.cpu0.iew.dispStoreInsts                 216750                       # Number of dispatched store instructions (Count)
system.cpu0.iew.dispNonSpecInsts                  900                       # Number of dispatched non-speculative instructions (Count)
system.cpu0.iew.iqFullEvents                     7286                       # Number of times the IQ has become full, causing a stall (Count)
system.cpu0.iew.lsqFullEvents                  139826                       # Number of times the LSQ has become full, causing a stall (Count)
system.cpu0.iew.memOrderViolationEvents           153                       # Number of memory order violations (Count)
system.cpu0.iew.predictedTakenIncorrect          7939                       # Number of branches that were predicted taken incorrectly (Count)
system.cpu0.iew.predictedNotTakenIncorrect        12688                       # Number of branches that were predicted not taken incorrectly (Count)
system.cpu0.iew.branchMispredicts               20627                       # Number of branch mispredicts detected at execute (Count)
system.cpu0.iew.instsToCommit                 4407188                       # Cumulative count of insts sent to commit (Count)
system.cpu0.iew.writebackCount                4395324                       # Cumulative count of insts written-back (Count)
system.cpu0.iew.producerInst                  3541085                       # Number of instructions producing a value (Count)
system.cpu0.iew.consumerInst                  6501176                       # Number of instructions consuming a value (Count)
system.cpu0.iew.wbRate                       0.448629                       # Insts written-back per cycle ((Count/Cycle))
system.cpu0.iew.wbFanout                     0.544684                       # Average fanout of values written-back ((Count/Count))
system.cpu0.interrupts.clk_domain.clock          8000                       # Clock period in ticks (Tick)
system.cpu0.lsq0.forwLoads                      58953                       # Number of loads that had data forwarded from stores (Count)
system.cpu0.lsq0.squashedLoads                 137346                       # Number of loads squashed (Count)
system.cpu0.lsq0.ignoredResponses                 101                       # Number of memory responses ignored because the instruction is squashed (Count)
system.cpu0.lsq0.memOrderViolation                153                       # Number of memory ordering violations (Count)
system.cpu0.lsq0.squashedStores                 37601                       # Number of stores squashed (Count)
system.cpu0.lsq0.rescheduledLoads                  14                       # Number of loads that were rescheduled (Count)
system.cpu0.lsq0.blockedByCache                  2121                       # Number of times an access to memory failed due to the cache being blocked (Count)
system.cpu0.lsq0.loadToUse::samples            520954                       # Distribution of cycle latency between the first time a load is issued and its completion (Unspecified)
system.cpu0.lsq0.loadToUse::mean            61.641608                       # Distribution of cycle latency between the first time a load is issued and its completion (Unspecified)
system.cpu0.lsq0.loadToUse::stdev          209.431821                       # Distribution of cycle latency between the first time a load is issued and its completion (Unspecified)
system.cpu0.lsq0.loadToUse::0-9                475635     91.30%     91.30% # Distribution of cycle latency between the first time a load is issued and its completion (Unspecified)
system.cpu0.lsq0.loadToUse::10-19                  69      0.01%     91.31% # Distribution of cycle latency between the first time a load is issued and its completion (Unspecified)
system.cpu0.lsq0.loadToUse::20-29                  60      0.01%     91.33% # Distribution of cycle latency between the first time a load is issued and its completion (Unspecified)
system.cpu0.lsq0.loadToUse::30-39                  79      0.02%     91.34% # Distribution of cycle latency between the first time a load is issued and its completion (Unspecified)
system.cpu0.lsq0.loadToUse::40-49                  72      0.01%     91.35% # Distribution of cycle latency between the first time a load is issued and its completion (Unspecified)
system.cpu0.lsq0.loadToUse::50-59                 143      0.03%     91.38% # Distribution of cycle latency between the first time a load is issued and its completion (Unspecified)
system.cpu0.lsq0.loadToUse::60-69                 124      0.02%     91.41% # Distribution of cycle latency between the first time a load is issued and its completion (Unspecified)
system.cpu0.lsq0.loadToUse::70-79                 106      0.02%     91.43% # Distribution of cycle latency between the first time a load is issued and its completion (Unspecified)
system.cpu0.lsq0.loadToUse::80-89                  73      0.01%     91.44% # Distribution of cycle latency between the first time a load is issued and its completion (Unspecified)
system.cpu0.lsq0.loadToUse::90-99                  68      0.01%     91.45% # Distribution of cycle latency between the first time a load is issued and its completion (Unspecified)
system.cpu0.lsq0.loadToUse::100-109                60      0.01%     91.46% # Distribution of cycle latency between the first time a load is issued and its completion (Unspecified)
system.cpu0.lsq0.loadToUse::110-119                76      0.01%     91.48% # Distribution of cycle latency between the first time a load is issued and its completion (Unspecified)
system.cpu0.lsq0.loadToUse::120-129                52      0.01%     91.49% # Distribution of cycle latency between the first time a load is issued and its completion (Unspecified)
system.cpu0.lsq0.loadToUse::130-139                39      0.01%     91.50% # Distribution of cycle latency between the first time a load is issued and its completion (Unspecified)
system.cpu0.lsq0.loadToUse::140-149                70      0.01%     91.51% # Distribution of cycle latency between the first time a load is issued and its completion (Unspecified)
system.cpu0.lsq0.loadToUse::150-159                59      0.01%     91.52% # Distribution of cycle latency between the first time a load is issued and its completion (Unspecified)
system.cpu0.lsq0.loadToUse::160-169                97      0.02%     91.54% # Distribution of cycle latency between the first time a load is issued and its completion (Unspecified)
system.cpu0.lsq0.loadToUse::170-179               162      0.03%     91.57% # Distribution of cycle latency between the first time a load is issued and its completion (Unspecified)
system.cpu0.lsq0.loadToUse::180-189               569      0.11%     91.68% # Distribution of cycle latency between the first time a load is issued and its completion (Unspecified)
system.cpu0.lsq0.loadToUse::190-199                51      0.01%     91.69% # Distribution of cycle latency between the first time a load is issued and its completion (Unspecified)
system.cpu0.lsq0.loadToUse::200-209                62      0.01%     91.70% # Distribution of cycle latency between the first time a load is issued and its completion (Unspecified)
system.cpu0.lsq0.loadToUse::210-219                69      0.01%     91.72% # Distribution of cycle latency between the first time a load is issued and its completion (Unspecified)
system.cpu0.lsq0.loadToUse::220-229               123      0.02%     91.74% # Distribution of cycle latency between the first time a load is issued and its completion (Unspecified)
system.cpu0.lsq0.loadToUse::230-239               187      0.04%     91.77% # Distribution of cycle latency between the first time a load is issued and its completion (Unspecified)
system.cpu0.lsq0.loadToUse::240-249              1066      0.20%     91.98% # Distribution of cycle latency between the first time a load is issued and its completion (Unspecified)
system.cpu0.lsq0.loadToUse::250-259                33      0.01%     91.99% # Distribution of cycle latency between the first time a load is issued and its completion (Unspecified)
system.cpu0.lsq0.loadToUse::260-269                60      0.01%     92.00% # Distribution of cycle latency between the first time a load is issued and its completion (Unspecified)
system.cpu0.lsq0.loadToUse::270-279                75      0.01%     92.01% # Distribution of cycle latency between the first time a load is issued and its completion (Unspecified)
system.cpu0.lsq0.loadToUse::280-289               184      0.04%     92.05% # Distribution of cycle latency between the first time a load is issued and its completion (Unspecified)
system.cpu0.lsq0.loadToUse::290-299               264      0.05%     92.10% # Distribution of cycle latency between the first time a load is issued and its completion (Unspecified)
system.cpu0.lsq0.loadToUse::overflows           41167      7.90%    100.00% # Distribution of cycle latency between the first time a load is issued and its completion (Unspecified)
system.cpu0.lsq0.loadToUse::min_value               2                       # Distribution of cycle latency between the first time a load is issued and its completion (Unspecified)
system.cpu0.lsq0.loadToUse::max_value            2627                       # Distribution of cycle latency between the first time a load is issued and its completion (Unspecified)
system.cpu0.lsq0.loadToUse::total              520954                       # Distribution of cycle latency between the first time a load is issued and its completion (Unspecified)
system.cpu0.mmu.dtb.rdAccesses                 625006                       # TLB accesses on read requests (Count)
system.cpu0.mmu.dtb.wrAccesses                 204693                       # TLB accesses on write requests (Count)
system.cpu0.mmu.dtb.rdMisses                     3152                       # TLB misses on read requests (Count)
system.cpu0.mmu.dtb.wrMisses                      431                       # TLB misses on write requests (Count)
system.cpu0.mmu.dtb.walker.power_state.pwrStateResidencyTicks::UNDEFINED   4952612000                       # Cumulative time (in ticks) in various power states (Tick)
system.cpu0.mmu.itb.rdAccesses                      0                       # TLB accesses on read requests (Count)
system.cpu0.mmu.itb.wrAccesses                 268532                       # TLB accesses on write requests (Count)
system.cpu0.mmu.itb.rdMisses                        0                       # TLB misses on read requests (Count)
system.cpu0.mmu.itb.wrMisses                     3076                       # TLB misses on write requests (Count)
system.cpu0.mmu.itb.walker.power_state.pwrStateResidencyTicks::UNDEFINED   4952612000                       # Cumulative time (in ticks) in various power states (Tick)
system.cpu0.power_state.pwrStateResidencyTicks::ON   4952612000                       # Cumulative time (in ticks) in various power states (Tick)
system.cpu0.rename.squashCycles                 19124                       # Number of cycles rename is squashing (Cycle)
system.cpu0.rename.idleCycles                  542857                       # Number of cycles rename is idle (Cycle)
system.cpu0.rename.blockCycles                6513685                       # Number of cycles rename is blocking (Cycle)
system.cpu0.rename.serializeStallCycles         22140                       # count of cycles rename stalled for serializing inst (Cycle)
system.cpu0.rename.runCycles                   632674                       # Number of cycles rename is running (Cycle)
system.cpu0.rename.unblockCycles               933494                       # Number of cycles rename is unblocking (Cycle)
system.cpu0.rename.renamedInsts               4922389                       # Number of instructions processed by rename (Count)
system.cpu0.rename.ROBFullEvents               100759                       # Number of times rename has blocked due to ROB full (Count)
system.cpu0.rename.IQFullEvents                243924                       # Number of times rename has blocked due to IQ full (Count)
system.cpu0.rename.LQFullEvents                144780                       # Number of times rename has blocked due to LQ full (Count)
system.cpu0.rename.SQFullEvents                490876                       # Number of times rename has blocked due to SQ full (Count)
system.cpu0.rename.fullRegistersEvents           2820                       # Number of times there has been no free registers (Count)
system.cpu0.rename.renamedOperands           10374442                       # Number of destination operands rename has renamed (Count)
system.cpu0.rename.lookups                   18606687                       # Number of register rename lookups that rename has made (Count)
system.cpu0.rename.intLookups                 6925192                       # Number of integer rename lookups (Count)
system.cpu0.rename.fpLookups                   184648                       # Number of floating rename lookups (Count)
system.cpu0.rename.committedMaps              8018327                       # Number of HB maps that are committed (Count)
system.cpu0.rename.undoneMaps                 2356115                       # Number of HB maps that are undone due to squashing (Count)
system.cpu0.rename.serializing                    873                       # count of serializing insts renamed (Count)
system.cpu0.rename.tempSerializing                859                       # count of temporary serializing insts renamed (Count)
system.cpu0.rename.skidInsts                   892273                       # count of insts added to the skid buffer (Count)
system.cpu0.rob.reads                        13099252                       # The number of ROB reads (Count)
system.cpu0.rob.writes                        9768760                       # The number of ROB writes (Count)
system.cpu0.thread_0.numInsts                 2172886                       # Number of Instructions committed (Count)
system.cpu0.thread_0.numOps                   3772129                       # Number of Ops committed (Count)
system.cpu0.thread_0.numMemRefs                     0                       # Number of Memory References (Count)
system.cpu0.workload.numSyscalls                   63                       # Number of system calls (Count)
system.cpu1.numCycles                         9354674                       # Number of cpu cycles simulated (Cycle)
system.cpu1.numWorkItemsStarted                     0                       # Number of work items this cpu started (Count)
system.cpu1.numWorkItemsCompleted                   0                       # Number of work items this cpu completed (Count)
system.cpu1.instsAdded                        4816900                       # Number of instructions added to the IQ (excludes non-spec) (Count)
system.cpu1.nonSpecInstsAdded                    1097                       # Number of non-speculative instructions added to the IQ (Count)
system.cpu1.instsIssued                       4454375                       # Number of instructions issued (Count)
system.cpu1.squashedInstsIssued                  2933                       # Number of squashed instructions issued (Count)
system.cpu1.squashedInstsExamined             1045868                       # Number of squashed instructions iterated over during squash; mainly for profiling (Count)
system.cpu1.squashedOperandsExamined          2260954                       # Number of squashed operands that are examined and possibly removed from graph (Count)
system.cpu1.squashedNonSpecRemoved                244                       # Number of squashed non-spec instructions that were removed (Count)
system.cpu1.numIssuedDist::samples            8305410                       # Number of insts issued each cycle (Count)
system.cpu1.numIssuedDist::mean              0.536322                       # Number of insts issued each cycle (Count)
system.cpu1.numIssuedDist::stdev             1.478511                       # Number of insts issued each cycle (Count)
system.cpu1.numIssuedDist::underflows               0      0.00%      0.00% # Number of insts issued each cycle (Count)
system.cpu1.numIssuedDist::0                  7060280     85.01%     85.01% # Number of insts issued each cycle (Count)
system.cpu1.numIssuedDist::1                   198456      2.39%     87.40% # Number of insts issued each cycle (Count)
system.cpu1.numIssuedDist::2                   227935      2.74%     90.14% # Number of insts issued each cycle (Count)
system.cpu1.numIssuedDist::3                   239865      2.89%     93.03% # Number of insts issued each cycle (Count)
system.cpu1.numIssuedDist::4                   194518      2.34%     95.37% # Number of insts issued each cycle (Count)
system.cpu1.numIssuedDist::5                   148970      1.79%     97.17% # Number of insts issued each cycle (Count)
system.cpu1.numIssuedDist::6                   128835      1.55%     98.72% # Number of insts issued each cycle (Count)
system.cpu1.numIssuedDist::7                    67886      0.82%     99.53% # Number of insts issued each cycle (Count)
system.cpu1.numIssuedDist::8                    38665      0.47%    100.00% # Number of insts issued each cycle (Count)
system.cpu1.numIssuedDist::overflows                0      0.00%    100.00% # Number of insts issued each cycle (Count)
system.cpu1.numIssuedDist::min_value                0                       # Number of insts issued each cycle (Count)
system.cpu1.numIssuedDist::max_value                8                       # Number of insts issued each cycle (Count)
system.cpu1.numIssuedDist::total              8305410                       # Number of insts issued each cycle (Count)
system.cpu1.statFuBusy::No_OpClass                  0      0.00%      0.00% # attempts to use FU when none available (Count)
system.cpu1.statFuBusy::IntAlu                  44162     66.83%     66.83% # attempts to use FU when none available (Count)
system.cpu1.statFuBusy::IntMult                     0      0.00%     66.83% # attempts to use FU when none available (Count)
system.cpu1.statFuBusy::IntDiv                      0      0.00%     66.83% # attempts to use FU when none available (Count)
system.cpu1.statFuBusy::FloatAdd                    0      0.00%     66.83% # attempts to use FU when none available (Count)
system.cpu1.statFuBusy::FloatCmp                    0      0.00%     66.83% # attempts to use FU when none available (Count)
system.cpu1.statFuBusy::FloatCvt                    0      0.00%     66.83% # attempts to use FU when none available (Count)
system.cpu1.statFuBusy::FloatMult                   0      0.00%     66.83% # attempts to use FU when none available (Count)
system.cpu1.statFuBusy::FloatMultAcc                0      0.00%     66.83% # attempts to use FU when none available (Count)
system.cpu1.statFuBusy::FloatDiv                    0      0.00%     66.83% # attempts to use FU when none available (Count)
system.cpu1.statFuBusy::FloatMisc                   0      0.00%     66.83% # attempts to use FU when none available (Count)
system.cpu1.statFuBusy::FloatSqrt                   0      0.00%     66.83% # attempts to use FU when none available (Count)
system.cpu1.statFuBusy::SimdAdd                     0      0.00%     66.83% # attempts to use FU when none available (Count)
system.cpu1.statFuBusy::SimdAddAcc                  0      0.00%     66.83% # attempts to use FU when none available (Count)
system.cpu1.statFuBusy::SimdAlu                   122      0.18%     67.02% # attempts to use FU when none available (Count)
system.cpu1.statFuBusy::SimdCmp                     0      0.00%     67.02% # attempts to use FU when none available (Count)
system.cpu1.statFuBusy::SimdCvt                   116      0.18%     67.19% # attempts to use FU when none available (Count)
system.cpu1.statFuBusy::SimdMisc                    1      0.00%     67.19% # attempts to use FU when none available (Count)
system.cpu1.statFuBusy::SimdMult                    0      0.00%     67.19% # attempts to use FU when none available (Count)
system.cpu1.statFuBusy::SimdMultAcc                 0      0.00%     67.19% # attempts to use FU when none available (Count)
system.cpu1.statFuBusy::SimdShift                 139      0.21%     67.40% # attempts to use FU when none available (Count)
system.cpu1.statFuBusy::SimdShiftAcc                0      0.00%     67.40% # attempts to use FU when none available (Count)
system.cpu1.statFuBusy::SimdDiv                     0      0.00%     67.40% # attempts to use FU when none available (Count)
system.cpu1.statFuBusy::SimdSqrt                    0      0.00%     67.40% # attempts to use FU when none available (Count)
system.cpu1.statFuBusy::SimdFloatAdd                0      0.00%     67.40% # attempts to use FU when none available (Count)
system.cpu1.statFuBusy::SimdFloatAlu                0      0.00%     67.40% # attempts to use FU when none available (Count)
system.cpu1.statFuBusy::SimdFloatCmp                0      0.00%     67.40% # attempts to use FU when none available (Count)
system.cpu1.statFuBusy::SimdFloatCvt                0      0.00%     67.40% # attempts to use FU when none available (Count)
system.cpu1.statFuBusy::SimdFloatDiv                0      0.00%     67.40% # attempts to use FU when none available (Count)
system.cpu1.statFuBusy::SimdFloatMisc               0      0.00%     67.40% # attempts to use FU when none available (Count)
system.cpu1.statFuBusy::SimdFloatMult               0      0.00%     67.40% # attempts to use FU when none available (Count)
system.cpu1.statFuBusy::SimdFloatMultAcc            0      0.00%     67.40% # attempts to use FU when none available (Count)
system.cpu1.statFuBusy::SimdFloatSqrt               0      0.00%     67.40% # attempts to use FU when none available (Count)
system.cpu1.statFuBusy::SimdReduceAdd               0      0.00%     67.40% # attempts to use FU when none available (Count)
system.cpu1.statFuBusy::SimdReduceAlu               0      0.00%     67.40% # attempts to use FU when none available (Count)
system.cpu1.statFuBusy::SimdReduceCmp               0      0.00%     67.40% # attempts to use FU when none available (Count)
system.cpu1.statFuBusy::SimdFloatReduceAdd            0      0.00%     67.40% # attempts to use FU when none available (Count)
system.cpu1.statFuBusy::SimdFloatReduceCmp            0      0.00%     67.40% # attempts to use FU when none available (Count)
system.cpu1.statFuBusy::SimdAes                     0      0.00%     67.40% # attempts to use FU when none available (Count)
system.cpu1.statFuBusy::SimdAesMix                  0      0.00%     67.40% # attempts to use FU when none available (Count)
system.cpu1.statFuBusy::SimdSha1Hash                0      0.00%     67.40% # attempts to use FU when none available (Count)
system.cpu1.statFuBusy::SimdSha1Hash2               0      0.00%     67.40% # attempts to use FU when none available (Count)
system.cpu1.statFuBusy::SimdSha256Hash              0      0.00%     67.40% # attempts to use FU when none available (Count)
system.cpu1.statFuBusy::SimdSha256Hash2             0      0.00%     67.40% # attempts to use FU when none available (Count)
system.cpu1.statFuBusy::SimdShaSigma2               0      0.00%     67.40% # attempts to use FU when none available (Count)
system.cpu1.statFuBusy::SimdShaSigma3               0      0.00%     67.40% # attempts to use FU when none available (Count)
system.cpu1.statFuBusy::SimdPredAlu                 0      0.00%     67.40% # attempts to use FU when none available (Count)
system.cpu1.statFuBusy::MemRead                 11962     18.10%     85.51% # attempts to use FU when none available (Count)
system.cpu1.statFuBusy::MemWrite                 7720     11.68%     97.19% # attempts to use FU when none available (Count)
system.cpu1.statFuBusy::FloatMemRead             1408      2.13%     99.32% # attempts to use FU when none available (Count)
system.cpu1.statFuBusy::FloatMemWrite             449      0.68%    100.00% # attempts to use FU when none available (Count)
system.cpu1.statFuBusy::IprAccess                   0      0.00%    100.00% # attempts to use FU when none available (Count)
system.cpu1.statFuBusy::InstPrefetch                0      0.00%    100.00% # attempts to use FU when none available (Count)
system.cpu1.statIssuedInstType_0::No_OpClass        18015      0.40%      0.40% # Number of instructions issued per FU type, per thread (Count)
system.cpu1.statIssuedInstType_0::IntAlu      3493247     78.42%     78.83% # Number of instructions issued per FU type, per thread (Count)
system.cpu1.statIssuedInstType_0::IntMult           35      0.00%     78.83% # Number of instructions issued per FU type, per thread (Count)
system.cpu1.statIssuedInstType_0::IntDiv        38205      0.86%     79.69% # Number of instructions issued per FU type, per thread (Count)
system.cpu1.statIssuedInstType_0::FloatAdd         4300      0.10%     79.78% # Number of instructions issued per FU type, per thread (Count)
system.cpu1.statIssuedInstType_0::FloatCmp            0      0.00%     79.78% # Number of instructions issued per FU type, per thread (Count)
system.cpu1.statIssuedInstType_0::FloatCvt         1690      0.04%     79.82% # Number of instructions issued per FU type, per thread (Count)
system.cpu1.statIssuedInstType_0::FloatMult            0      0.00%     79.82% # Number of instructions issued per FU type, per thread (Count)
system.cpu1.statIssuedInstType_0::FloatMultAcc            0      0.00%     79.82% # Number of instructions issued per FU type, per thread (Count)
system.cpu1.statIssuedInstType_0::FloatDiv            0      0.00%     79.82% # Number of instructions issued per FU type, per thread (Count)
system.cpu1.statIssuedInstType_0::FloatMisc            0      0.00%     79.82% # Number of instructions issued per FU type, per thread (Count)
system.cpu1.statIssuedInstType_0::FloatSqrt            0      0.00%     79.82% # Number of instructions issued per FU type, per thread (Count)
system.cpu1.statIssuedInstType_0::SimdAdd         8196      0.18%     80.00% # Number of instructions issued per FU type, per thread (Count)
system.cpu1.statIssuedInstType_0::SimdAddAcc            0      0.00%     80.00% # Number of instructions issued per FU type, per thread (Count)
system.cpu1.statIssuedInstType_0::SimdAlu        16717      0.38%     80.38% # Number of instructions issued per FU type, per thread (Count)
system.cpu1.statIssuedInstType_0::SimdCmp            0      0.00%     80.38% # Number of instructions issued per FU type, per thread (Count)
system.cpu1.statIssuedInstType_0::SimdCvt        18254      0.41%     80.79% # Number of instructions issued per FU type, per thread (Count)
system.cpu1.statIssuedInstType_0::SimdMisc         8686      0.19%     80.98% # Number of instructions issued per FU type, per thread (Count)
system.cpu1.statIssuedInstType_0::SimdMult            0      0.00%     80.98% # Number of instructions issued per FU type, per thread (Count)
system.cpu1.statIssuedInstType_0::SimdMultAcc            0      0.00%     80.98% # Number of instructions issued per FU type, per thread (Count)
system.cpu1.statIssuedInstType_0::SimdShift         2445      0.05%     81.04% # Number of instructions issued per FU type, per thread (Count)
system.cpu1.statIssuedInstType_0::SimdShiftAcc            0      0.00%     81.04% # Number of instructions issued per FU type, per thread (Count)
system.cpu1.statIssuedInstType_0::SimdDiv            0      0.00%     81.04% # Number of instructions issued per FU type, per thread (Count)
system.cpu1.statIssuedInstType_0::SimdSqrt            0      0.00%     81.04% # Number of instructions issued per FU type, per thread (Count)
system.cpu1.statIssuedInstType_0::SimdFloatAdd            0      0.00%     81.04% # Number of instructions issued per FU type, per thread (Count)
system.cpu1.statIssuedInstType_0::SimdFloatAlu            0      0.00%     81.04% # Number of instructions issued per FU type, per thread (Count)
system.cpu1.statIssuedInstType_0::SimdFloatCmp            0      0.00%     81.04% # Number of instructions issued per FU type, per thread (Count)
system.cpu1.statIssuedInstType_0::SimdFloatCvt            0      0.00%     81.04% # Number of instructions issued per FU type, per thread (Count)
system.cpu1.statIssuedInstType_0::SimdFloatDiv            0      0.00%     81.04% # Number of instructions issued per FU type, per thread (Count)
system.cpu1.statIssuedInstType_0::SimdFloatMisc            0      0.00%     81.04% # Number of instructions issued per FU type, per thread (Count)
system.cpu1.statIssuedInstType_0::SimdFloatMult            0      0.00%     81.04% # Number of instructions issued per FU type, per thread (Count)
system.cpu1.statIssuedInstType_0::SimdFloatMultAcc            0      0.00%     81.04% # Number of instructions issued per FU type, per thread (Count)
system.cpu1.statIssuedInstType_0::SimdFloatSqrt            0      0.00%     81.04% # Number of instructions issued per FU type, per thread (Count)
system.cpu1.statIssuedInstType_0::SimdReduceAdd            0      0.00%     81.04% # Number of instructions issued per FU type, per thread (Count)
system.cpu1.statIssuedInstType_0::SimdReduceAlu            0      0.00%     81.04% # Number of instructions issued per FU type, per thread (Count)
system.cpu1.statIssuedInstType_0::SimdReduceCmp            0      0.00%     81.04% # Number of instructions issued per FU type, per thread (Count)
system.cpu1.statIssuedInstType_0::SimdFloatReduceAdd            0      0.00%     81.04% # Number of instructions issued per FU type, per thread (Count)
system.cpu1.statIssuedInstType_0::SimdFloatReduceCmp            0      0.00%     81.04% # Number of instructions issued per FU type, per thread (Count)
system.cpu1.statIssuedInstType_0::SimdAes            0      0.00%     81.04% # Number of instructions issued per FU type, per thread (Count)
system.cpu1.statIssuedInstType_0::SimdAesMix            0      0.00%     81.04% # Number of instructions issued per FU type, per thread (Count)
system.cpu1.statIssuedInstType_0::SimdSha1Hash            0      0.00%     81.04% # Number of instructions issued per FU type, per thread (Count)
system.cpu1.statIssuedInstType_0::SimdSha1Hash2            0      0.00%     81.04% # Number of instructions issued per FU type, per thread (Count)
system.cpu1.statIssuedInstType_0::SimdSha256Hash            0      0.00%     81.04% # Number of instructions issued per FU type, per thread (Count)
system.cpu1.statIssuedInstType_0::SimdSha256Hash2            0      0.00%     81.04% # Number of instructions issued per FU type, per thread (Count)
system.cpu1.statIssuedInstType_0::SimdShaSigma2            0      0.00%     81.04% # Number of instructions issued per FU type, per thread (Count)
system.cpu1.statIssuedInstType_0::SimdShaSigma3            0      0.00%     81.04% # Number of instructions issued per FU type, per thread (Count)
system.cpu1.statIssuedInstType_0::SimdPredAlu            0      0.00%     81.04% # Number of instructions issued per FU type, per thread (Count)
system.cpu1.statIssuedInstType_0::MemRead       604761     13.58%     94.62% # Number of instructions issued per FU type, per thread (Count)
system.cpu1.statIssuedInstType_0::MemWrite       188718      4.24%     98.85% # Number of instructions issued per FU type, per thread (Count)
system.cpu1.statIssuedInstType_0::FloatMemRead        33179      0.74%     99.60% # Number of instructions issued per FU type, per thread (Count)
system.cpu1.statIssuedInstType_0::FloatMemWrite        17927      0.40%    100.00% # Number of instructions issued per FU type, per thread (Count)
system.cpu1.statIssuedInstType_0::IprAccess            0      0.00%    100.00% # Number of instructions issued per FU type, per thread (Count)
system.cpu1.statIssuedInstType_0::InstPrefetch            0      0.00%    100.00% # Number of instructions issued per FU type, per thread (Count)
system.cpu1.statIssuedInstType_0::total       4454375                       # Number of instructions issued per FU type, per thread (Count)
system.cpu1.issueRate                        0.476166                       # Inst issue rate ((Count/Cycle))
system.cpu1.fuBusy                              66079                       # FU busy when requested (Count)
system.cpu1.fuBusyRate                       0.014835                       # FU busy rate (busy events/executed inst) ((Count/Count))
system.cpu1.intInstQueueReads                17055630                       # Number of integer instruction queue reads (Count)
system.cpu1.intInstQueueWrites                5691421                       # Number of integer instruction queue writes (Count)
system.cpu1.intInstQueueWakeupAccesses        4285941                       # Number of integer instruction queue wakeup accesses (Count)
system.cpu1.fpInstQueueReads                   227542                       # Number of floating instruction queue reads (Count)
system.cpu1.fpInstQueueWrites                  172589                       # Number of floating instruction queue writes (Count)
system.cpu1.fpInstQueueWakeupAccesses          108777                       # Number of floating instruction queue wakeup accesses (Count)
system.cpu1.vecInstQueueReads                       0                       # Number of vector instruction queue reads (Count)
system.cpu1.vecInstQueueWrites                      0                       # Number of vector instruction queue writes (Count)
system.cpu1.vecInstQueueWakeupAccesses              0                       # Number of vector instruction queue wakeup accesses (Count)
system.cpu1.intAluAccesses                    4387698                       # Number of integer alu accesses (Count)
system.cpu1.fpAluAccesses                      114741                       # Number of floating point alu accesses (Count)
system.cpu1.vecAluAccesses                          0                       # Number of vector alu accesses (Count)
system.cpu1.numInsts                          4423829                       # Number of executed instructions (Count)
system.cpu1.numLoadInsts                       630242                       # Number of load instructions executed (Count)
system.cpu1.numSquashedInsts                    30546                       # Number of squashed instructions skipped in execute (Count)
system.cpu1.numSwp                                  0                       # Number of swp insts executed (Count)
system.cpu1.numNop                                  0                       # Number of nop insts executed (Count)
system.cpu1.numRefs                            834884                       # Number of memory reference insts executed (Count)
system.cpu1.numBranches                        399437                       # Number of branches executed (Count)
[...]
system.ruby.network.ext_out_link_utilization      4191890                       (Unspecified)
system.ruby.network.flit_network_latency | 79880477500                       |208724994000                       | 19510432500                       (Unspecified)
system.ruby.network.flit_queueing_latency |  2138878500                       |  2233453000                       |   147907000                       (Unspecified)
system.ruby.network.flits_injected       |      995100     23.74%     23.74% |     2900976     69.20%     92.94% |      295816      7.06%    100.00% (Unspecified)
system.ruby.network.flits_injected::total      4191892                       (Unspecified)
system.ruby.network.flits_received       |      995099     23.74%     23.74% |     2900976     69.20%     92.94% |      295814      7.06%    100.00% (Unspecified)
system.ruby.network.flits_received::total      4191889                       (Unspecified)
system.ruby.network.int_link_utilization     10407845                       (Unspecified)
system.ruby.network.packet_network_latency | 59365193000                       | 68955464500                       | 19510432500                       (Unspecified)
system.ruby.network.packet_queueing_latency |  1753068500                       |   580227000                       |   147907000                       (Unspecified)
system.ruby.network.packets_injected     |      810372     42.28%     42.28% |      810368     42.28%     84.57% |      295816     15.43%    100.00% (Unspecified)
system.ruby.network.packets_injected::total      1916556                       (Unspecified)
system.ruby.network.packets_received     |      810371     42.28%     42.28% |      810368     42.28%     84.57% |      295814     15.43%    100.00% (Unspecified)
system.ruby.network.packets_received::total      1916553                       (Unspecified)
system.ruby.network.routers00.Var_1                 0                       (Unspecified)
system.ruby.network.routers00.Var_2                 0                       (Unspecified)
system.ruby.network.routers00.Var_3                 0                       (Unspecified)
system.ruby.network.routers00.all_counts            0                       (Unspecified)
system.ruby.network.routers00.buffer_reads       663100                       (Unspecified)
system.ruby.network.routers00.buffer_writes       663100                       (Unspecified)
system.ruby.network.routers00.crossbar_activity       663100                       (Unspecified)
system.ruby.network.routers00.detour_counts            0                       (Unspecified)
system.ruby.network.routers00.regular_var            0                       (Unspecified)
system.ruby.network.routers00.risk_counts            0                       (Unspecified)
system.ruby.network.routers00.sw_input_arbiter_activity       667597                       (Unspecified)
system.ruby.network.routers00.sw_output_arbiter_activity       663100                       (Unspecified)
system.ruby.network.routers01.Var_1                 0                       (Unspecified)
system.ruby.network.routers01.Var_2                 0                       (Unspecified)
system.ruby.network.routers01.Var_3                 0                       (Unspecified)
system.ruby.network.routers01.all_counts            0                       (Unspecified)
system.ruby.network.routers01.buffer_reads       929776                       (Unspecified)
system.ruby.network.routers01.buffer_writes       929776                       (Unspecified)
system.ruby.network.routers01.crossbar_activity       929776                       (Unspecified)
system.ruby.network.routers01.detour_counts            0                       (Unspecified)
system.ruby.network.routers01.regular_var            0                       (Unspecified)
system.ruby.network.routers01.risk_counts            0                       (Unspecified)
system.ruby.network.routers01.sw_input_arbiter_activity       939925                       (Unspecified)
system.ruby.network.routers01.sw_output_arbiter_activity       929776                       (Unspecified)
system.ruby.network.routers02.Var_1                 0                       (Unspecified)
system.ruby.network.routers02.Var_2                 0                       (Unspecified)
system.ruby.network.routers02.Var_3                 0                       (Unspecified)
system.ruby.network.routers02.all_counts            0                       (Unspecified)
system.ruby.network.routers02.buffer_reads       931306                       (Unspecified)
system.ruby.network.routers02.buffer_writes       931306                       (Unspecified)
system.ruby.network.routers02.crossbar_activity       931306                       (Unspecified)
system.ruby.network.routers02.detour_counts            0                       (Unspecified)
system.ruby.network.routers02.regular_var            0                       (Unspecified)
system.ruby.network.routers02.risk_counts            0                       (Unspecified)
system.ruby.network.routers02.sw_input_arbiter_activity       941659                       (Unspecified)
system.ruby.network.routers02.sw_output_arbiter_activity       931306                       (Unspecified)
system.ruby.network.routers03.Var_1                 0                       (Unspecified)
system.ruby.network.routers03.Var_2                 0                       (Unspecified)
system.ruby.network.routers03.Var_3                 0                       (Unspecified)
system.ruby.network.routers03.all_counts            0                       (Unspecified)
system.ruby.network.routers03.buffer_reads       653365                       (Unspecified)
system.ruby.network.routers03.buffer_writes       653365                       (Unspecified)
system.ruby.network.routers03.crossbar_activity       653365                       (Unspecified)
system.ruby.network.routers03.detour_counts            0                       (Unspecified)
system.ruby.network.routers03.regular_var            0                       (Unspecified)
system.ruby.network.routers03.risk_counts            0                       (Unspecified)
system.ruby.network.routers03.sw_input_arbiter_activity       657641                       (Unspecified)
system.ruby.network.routers03.sw_output_arbiter_activity       653365                       (Unspecified)
system.ruby.network.routers04.Var_1                 0                       (Unspecified)
system.ruby.network.routers04.Var_2                 0                       (Unspecified)
system.ruby.network.routers04.Var_3                 0                       (Unspecified)
system.ruby.network.routers04.all_counts            0                       (Unspecified)
system.ruby.network.routers04.buffer_reads       906761                       (Unspecified)
system.ruby.network.routers04.buffer_writes       906761                       (Unspecified)
system.ruby.network.routers04.crossbar_activity       906761                       (Unspecified)
system.ruby.network.routers04.detour_counts            0                       (Unspecified)
system.ruby.network.routers04.regular_var            0                       (Unspecified)
system.ruby.network.routers04.risk_counts            0                       (Unspecified)
system.ruby.network.routers04.sw_input_arbiter_activity       916137                       (Unspecified)
system.ruby.network.routers04.sw_output_arbiter_activity       906761                       (Unspecified)
system.ruby.network.routers05.Var_1                 0                       (Unspecified)
system.ruby.network.routers05.Var_2                 0                       (Unspecified)
system.ruby.network.routers05.Var_3                 0                       (Unspecified)
system.ruby.network.routers05.all_counts            0                       (Unspecified)
system.ruby.network.routers05.buffer_reads      1172571                       (Unspecified)
system.ruby.network.routers05.buffer_writes      1172571                       (Unspecified)
system.ruby.network.routers05.crossbar_activity      1172571                       (Unspecified)
system.ruby.network.routers05.detour_counts            0                       (Unspecified)
system.ruby.network.routers05.regular_var            0                       (Unspecified)
system.ruby.network.routers05.risk_counts            0                       (Unspecified)
system.ruby.network.routers05.sw_input_arbiter_activity      1187959                       (Unspecified)
system.ruby.network.routers05.sw_output_arbiter_activity      1172571                       (Unspecified)
system.ruby.network.routers06.Var_1                 0                       (Unspecified)
system.ruby.network.routers06.Var_2                 0                       (Unspecified)
system.ruby.network.routers06.Var_3                 0                       (Unspecified)
system.ruby.network.routers06.all_counts            0                       (Unspecified)
system.ruby.network.routers06.buffer_reads      1173397                       (Unspecified)
system.ruby.network.routers06.buffer_writes      1173397                       (Unspecified)
system.ruby.network.routers06.crossbar_activity      1173397                       (Unspecified)
system.ruby.network.routers06.detour_counts            0                       (Unspecified)
system.ruby.network.routers06.regular_var            0                       (Unspecified)
system.ruby.network.routers06.risk_counts            0                       (Unspecified)
system.ruby.network.routers06.sw_input_arbiter_activity      1189550                       (Unspecified)
system.ruby.network.routers06.sw_output_arbiter_activity      1173397                       (Unspecified)
system.ruby.network.routers07.Var_1                 0                       (Unspecified)
system.ruby.network.routers07.Var_2                 0                       (Unspecified)
system.ruby.network.routers07.Var_3                 0                       (Unspecified)
system.ruby.network.routers07.all_counts            0                       (Unspecified)
system.ruby.network.routers07.buffer_reads       899764                       (Unspecified)
system.ruby.network.routers07.buffer_writes       899764                       (Unspecified)
system.ruby.network.routers07.crossbar_activity       899764                       (Unspecified)
system.ruby.network.routers07.detour_counts            0                       (Unspecified)
system.ruby.network.routers07.regular_var            0                       (Unspecified)
system.ruby.network.routers07.risk_counts            0                       (Unspecified)
system.ruby.network.routers07.sw_input_arbiter_activity       908886                       (Unspecified)
system.ruby.network.routers07.sw_output_arbiter_activity       899764                       (Unspecified)
system.ruby.network.routers08.Var_1                 0                       (Unspecified)
system.ruby.network.routers08.Var_2                 0                       (Unspecified)
system.ruby.network.routers08.Var_3                 0                       (Unspecified)
system.ruby.network.routers08.all_counts            0                       (Unspecified)
system.ruby.network.routers08.buffer_reads       903260                       (Unspecified)
system.ruby.network.routers08.buffer_writes       903260                       (Unspecified)
system.ruby.network.routers08.crossbar_activity       903260                       (Unspecified)
system.ruby.network.routers08.detour_counts            0                       (Unspecified)
system.ruby.network.routers08.regular_var            0                       (Unspecified)
system.ruby.network.routers08.risk_counts            0                       (Unspecified)
system.ruby.network.routers08.sw_input_arbiter_activity       912536                       (Unspecified)
system.ruby.network.routers08.sw_output_arbiter_activity       903260                       (Unspecified)
system.ruby.network.routers09.Var_1                 0                       (Unspecified)
system.ruby.network.routers09.Var_2                 0                       (Unspecified)
system.ruby.network.routers09.Var_3                 0                       (Unspecified)
system.ruby.network.routers09.all_counts            0                       (Unspecified)
system.ruby.network.routers09.buffer_reads      1175991                       (Unspecified)
system.ruby.network.routers09.buffer_writes      1175991                       (Unspecified)
system.ruby.network.routers09.crossbar_activity      1175991                       (Unspecified)
system.ruby.network.routers09.detour_counts            0                       (Unspecified)
system.ruby.network.routers09.regular_var            0                       (Unspecified)
system.ruby.network.routers09.risk_counts            0                       (Unspecified)
system.ruby.network.routers09.sw_input_arbiter_activity      1191825                       (Unspecified)
system.ruby.network.routers09.sw_output_arbiter_activity      1175991                       (Unspecified)
system.ruby.network.routers10.Var_1                 0                       (Unspecified)
system.ruby.network.routers10.Var_2                 0                       (Unspecified)
system.ruby.network.routers10.Var_3                 0                       (Unspecified)
system.ruby.network.routers10.all_counts            0                       (Unspecified)
system.ruby.network.routers10.buffer_reads      1170839                       (Unspecified)
system.ruby.network.routers10.buffer_writes      1170839                       (Unspecified)
system.ruby.network.routers10.crossbar_activity      1170839                       (Unspecified)
system.ruby.network.routers10.detour_counts            0                       (Unspecified)
system.ruby.network.routers10.regular_var            0                       (Unspecified)
system.ruby.network.routers10.risk_counts            0                       (Unspecified)
system.ruby.network.routers10.sw_input_arbiter_activity      1185815                       (Unspecified)
system.ruby.network.routers10.sw_output_arbiter_activity      1170839                       (Unspecified)
system.ruby.network.routers11.Var_1                 0                       (Unspecified)
system.ruby.network.routers11.Var_2                 0                       (Unspecified)
system.ruby.network.routers11.Var_3                 0                       (Unspecified)
system.ruby.network.routers11.all_counts            0                       (Unspecified)
system.ruby.network.routers11.buffer_reads       891971                       (Unspecified)
system.ruby.network.routers11.buffer_writes       891971                       (Unspecified)
system.ruby.network.routers11.crossbar_activity       891971                       (Unspecified)
system.ruby.network.routers11.detour_counts            0                       (Unspecified)
system.ruby.network.routers11.regular_var            0                       (Unspecified)
system.ruby.network.routers11.risk_counts            0                       (Unspecified)
system.ruby.network.routers11.sw_input_arbiter_activity       901442                       (Unspecified)
system.ruby.network.routers11.sw_output_arbiter_activity       891971                       (Unspecified)
system.ruby.network.routers12.Var_1                 0                       (Unspecified)
system.ruby.network.routers12.Var_2                 0                       (Unspecified)
system.ruby.network.routers12.Var_3                 0                       (Unspecified)
system.ruby.network.routers12.all_counts            0                       (Unspecified)
system.ruby.network.routers12.buffer_reads       650584                       (Unspecified)
system.ruby.network.routers12.buffer_writes       650584                       (Unspecified)
system.ruby.network.routers12.crossbar_activity       650584                       (Unspecified)
system.ruby.network.routers12.detour_counts            0                       (Unspecified)
system.ruby.network.routers12.regular_var            0                       (Unspecified)
system.ruby.network.routers12.risk_counts            0                       (Unspecified)
system.ruby.network.routers12.sw_input_arbiter_activity       655051                       (Unspecified)
system.ruby.network.routers12.sw_output_arbiter_activity       650584                       (Unspecified)
system.ruby.network.routers13.Var_1                 0                       (Unspecified)
system.ruby.network.routers13.Var_2                 0                       (Unspecified)
system.ruby.network.routers13.Var_3                 0                       (Unspecified)
system.ruby.network.routers13.all_counts            0                       (Unspecified)
system.ruby.network.routers13.buffer_reads       918225                       (Unspecified)
system.ruby.network.routers13.buffer_writes       918225                       (Unspecified)
system.ruby.network.routers13.crossbar_activity       918225                       (Unspecified)
system.ruby.network.routers13.detour_counts            0                       (Unspecified)
system.ruby.network.routers13.regular_var            0                       (Unspecified)
system.ruby.network.routers13.risk_counts            0                       (Unspecified)
system.ruby.network.routers13.sw_input_arbiter_activity       928141                       (Unspecified)
system.ruby.network.routers13.sw_output_arbiter_activity       918225                       (Unspecified)
system.ruby.network.routers14.Var_1                 0                       (Unspecified)
system.ruby.network.routers14.Var_2                 0                       (Unspecified)
system.ruby.network.routers14.Var_3                 0                       (Unspecified)
system.ruby.network.routers14.all_counts            0                       (Unspecified)
system.ruby.network.routers14.buffer_reads       912675                       (Unspecified)
system.ruby.network.routers14.buffer_writes       912675                       (Unspecified)
system.ruby.network.routers14.crossbar_activity       912675                       (Unspecified)
system.ruby.network.routers14.detour_counts            0                       (Unspecified)
system.ruby.network.routers14.regular_var            0                       (Unspecified)
system.ruby.network.routers14.risk_counts            0                       (Unspecified)
system.ruby.network.routers14.sw_input_arbiter_activity       922433                       (Unspecified)
system.ruby.network.routers14.sw_output_arbiter_activity       912675                       (Unspecified)
system.ruby.network.routers15.Var_1                 0                       (Unspecified)
system.ruby.network.routers15.Var_2                 0                       (Unspecified)
system.ruby.network.routers15.Var_3                 0                       (Unspecified)
system.ruby.network.routers15.all_counts            0                       (Unspecified)
system.ruby.network.routers15.buffer_reads       646150                       (Unspecified)
system.ruby.network.routers15.buffer_writes       646150                       (Unspecified)
system.ruby.network.routers15.crossbar_activity       646150                       (Unspecified)
system.ruby.network.routers15.detour_counts            0                       (Unspecified)
system.ruby.network.routers15.regular_var            0                       (Unspecified)
system.ruby.network.routers15.risk_counts            0                       (Unspecified)
system.ruby.network.routers15.sw_input_arbiter_activity       650508                       (Unspecified)
system.ruby.network.routers15.sw_output_arbiter_activity       646150                       (Unspecified)

---------- End Simulation Statistics   ----------
