
---------- Begin Simulation Statistics ----------
simSeconds                                   0.005312                       # Number of seconds simulated (Second)
simTicks                                   5311771500                       # Number of ticks simulated (Tick)
finalTick                                  5311771500                       # Number of ticks from beginning of simulation (restored from checkpoints and never reset) (Tick)
simFreq                                  1000000000000                       # The number of ticks per simulated second ((Tick/Second))
hostSeconds                                    721.22                       # Real time elapsed on the host (Second)
hostTickRate                                  7364987                       # The number of ticks simulated per host second (ticks/s) ((Tick/Second))
hostMemory                                   11460196                       # Number of bytes of host memory used (Byte)
simInsts                                     34766176                       # Number of instructions simulated (Count)
simOps                                       60354064                       # Number of ops (including micro ops) simulated (Count)
hostInstRate                                    48205                       # Simulator instruction rate (inst/s) ((Count/Second))
hostOpRate                                      83683                       # Simulator op (including micro ops) rate (op/s) ((Count/Second))
system.clk_domain.clock                          1000                       # Clock period in ticks (Tick)
system.cpu0.numCycles                        10564954                       # Number of cpu cycles simulated (Cycle)
system.cpu0.numWorkItemsStarted                     0                       # Number of work items this cpu started (Count)
system.cpu0.numWorkItemsCompleted                   0                       # Number of work items this cpu completed (Count)
system.cpu0.instsAdded                        4817576                       # Number of instructions added to the IQ (excludes non-spec) (Count)
system.cpu0.nonSpecInstsAdded                    1099                       # Number of non-speculative instructions added to the IQ (Count)
system.cpu0.instsIssued                       4455571                       # Number of instructions issued (Count)
system.cpu0.squashedInstsIssued                  2915                       # Number of squashed instructions issued (Count)
system.cpu0.squashedInstsExamined             1046546                       # Number of squashed instructions iterated over during squash; mainly for profiling (Count)
system.cpu0.squashedOperandsExamined          2258052                       # Number of squashed operands that are examined and possibly removed from graph (Count)
system.cpu0.squashedNonSpecRemoved                246                       # Number of squashed non-spec instructions that were removed (Count)
system.cpu0.numIssuedDist::samples            9354361                       # Number of insts issued each cycle (Count)
system.cpu0.numIssuedDist::mean              0.476309                       # Number of insts issued each cycle (Count)
system.cpu0.numIssuedDist::stdev             1.403508                       # Number of insts issued each cycle (Count)
system.cpu0.numIssuedDist::underflows               0      0.00%      0.00% # Number of insts issued each cycle (Count)
system.cpu0.numIssuedDist::0                  8108521     86.68%     86.68% # Number of insts issued each cycle (Count)
system.cpu0.numIssuedDist::1                   198990      2.13%     88.81% # Number of insts issued each cycle (Count)
system.cpu0.numIssuedDist::2                   228082      2.44%     91.25% # Number of insts issued each cycle (Count)
system.cpu0.numIssuedDist::3                   239803      2.56%     93.81% # Number of insts issued each cycle (Count)
system.cpu0.numIssuedDist::4                   194556      2.08%     95.89% # Number of insts issued each cycle (Count)
system.cpu0.numIssuedDist::5                   148994      1.59%     97.48% # Number of insts issued each cycle (Count)
system.cpu0.numIssuedDist::6                   128761      1.38%     98.86% # Number of insts issued each cycle (Count)
system.cpu0.numIssuedDist::7                    67984      0.73%     99.59% # Number of insts issued each cycle (Count)
system.cpu0.numIssuedDist::8                    38670      0.41%    100.00% # Number of insts issued each cycle (Count)
system.cpu0.numIssuedDist::overflows                0      0.00%    100.00% # Number of insts issued each cycle (Count)
system.cpu0.numIssuedDist::min_value                0                       # Number of insts issued each cycle (Count)
system.cpu0.numIssuedDist::max_value                8                       # Number of insts issued each cycle (Count)
system.cpu0.numIssuedDist::total              9354361                       # Number of insts issued each cycle (Count)
system.cpu0.statFuBusy::No_OpClass                  0      0.00%      0.00% # attempts to use FU when none available (Count)
system.cpu0.statFuBusy::IntAlu                  44180     66.82%     66.82% # attempts to use FU when none available (Count)
system.cpu0.statFuBusy::IntMult                     0      0.00%     66.82% # attempts to use FU when none available (Count)
system.cpu0.statFuBusy::IntDiv                      0      0.00%     66.82% # attempts to use FU when none available (Count)
system.cpu0.statFuBusy::FloatAdd                    0      0.00%     66.82% # attempts to use FU when none available (Count)
system.cpu0.statFuBusy::FloatCmp                    0      0.00%     66.82% # attempts to use FU when none available (Count)
system.cpu0.statFuBusy::FloatCvt                    2      0.00%     66.82% # attempts to use FU when none available (Count)
system.cpu0.statFuBusy::FloatMult                   0      0.00%     66.82% # attempts to use FU when none available (Count)
system.cpu0.statFuBusy::FloatMultAcc                0      0.00%     66.82% # attempts to use FU when none available (Count)
system.cpu0.statFuBusy::FloatDiv                    0      0.00%     66.82% # attempts to use FU when none available (Count)
system.cpu0.statFuBusy::FloatMisc                   0      0.00%     66.82% # attempts to use FU when none available (Count)
system.cpu0.statFuBusy::FloatSqrt                   0      0.00%     66.82% # attempts to use FU when none available (Count)
system.cpu0.statFuBusy::SimdAdd                     0      0.00%     66.82% # attempts to use FU when none available (Count)
system.cpu0.statFuBusy::SimdAddAcc                  0      0.00%     66.82% # attempts to use FU when none available (Count)
system.cpu0.statFuBusy::SimdAlu                   123      0.19%     67.00% # attempts to use FU when none available (Count)
system.cpu0.statFuBusy::SimdCmp                     0      0.00%     67.00% # attempts to use FU when none available (Count)
system.cpu0.statFuBusy::SimdCvt                   117      0.18%     67.18% # attempts to use FU when none available (Count)
system.cpu0.statFuBusy::SimdMisc                    1      0.00%     67.18% # attempts to use FU when none available (Count)
system.cpu0.statFuBusy::SimdMult                    0      0.00%     67.18% # attempts to use FU when none available (Count)
system.cpu0.statFuBusy::SimdMultAcc                 0      0.00%     67.18% # attempts to use FU when none available (Count)
system.cpu0.statFuBusy::SimdShift                 135      0.20%     67.39% # attempts to use FU when none available (Count)
system.cpu0.statFuBusy::SimdShiftAcc                0      0.00%     67.39% # attempts to use FU when none available (Count)
system.cpu0.statFuBusy::SimdDiv                     0      0.00%     67.39% # attempts to use FU when none available (Count)
system.cpu0.statFuBusy::SimdSqrt                    0      0.00%     67.39% # attempts to use FU when none available (Count)
system.cpu0.statFuBusy::SimdFloatAdd                0      0.00%     67.39% # attempts to use FU when none available (Count)
system.cpu0.statFuBusy::SimdFloatAlu                0      0.00%     67.39% # attempts to use FU when none available (Count)
system.cpu0.statFuBusy::SimdFloatCmp                0      0.00%     67.39% # attempts to use FU when none available (Count)
system.cpu0.statFuBusy::SimdFloatCvt                0      0.00%     67.39% # attempts to use FU when none available (Count)
system.cpu0.statFuBusy::SimdFloatDiv                0      0.00%     67.39% # attempts to use FU when none available (Count)
system.cpu0.statFuBusy::SimdFloatMisc               0      0.00%     67.39% # attempts to use FU when none available (Count)
system.cpu0.statFuBusy::SimdFloatMult               0      0.00%     67.39% # attempts to use FU when none available (Count)
system.cpu0.statFuBusy::SimdFloatMultAcc            0      0.00%     67.39% # attempts to use FU when none available (Count)
system.cpu0.statFuBusy::SimdFloatSqrt               0      0.00%     67.39% # attempts to use FU when none available (Count)
system.cpu0.statFuBusy::SimdReduceAdd               0      0.00%     67.39% # attempts to use FU when none available (Count)
system.cpu0.statFuBusy::SimdReduceAlu               0      0.00%     67.39% # attempts to use FU when none available (Count)
system.cpu0.statFuBusy::SimdReduceCmp               0      0.00%     67.39% # attempts to use FU when none available (Count)
system.cpu0.statFuBusy::SimdFloatReduceAdd            0      0.00%     67.39% # attempts to use FU when none available (Count)
system.cpu0.statFuBusy::SimdFloatReduceCmp            0      0.00%     67.39% # attempts to use FU when none available (Count)
system.cpu0.statFuBusy::SimdAes                     0      0.00%     67.39% # attempts to use FU when none available (Count)
system.cpu0.statFuBusy::SimdAesMix                  0      0.00%     67.39% # attempts to use FU when none available (Count)
system.cpu0.statFuBusy::SimdSha1Hash                0      0.00%     67.39% # attempts to use FU when none available (Count)
system.cpu0.statFuBusy::SimdSha1Hash2               0      0.00%     67.39% # attempts to use FU when none available (Count)
system.cpu0.statFuBusy::SimdSha256Hash              0      0.00%     67.39% # attempts to use FU when none available (Count)
system.cpu0.statFuBusy::SimdSha256Hash2             0      0.00%     67.39% # attempts to use FU when none available (Count)
system.cpu0.statFuBusy::SimdShaSigma2               0      0.00%     67.39% # attempts to use FU when none available (Count)
system.cpu0.statFuBusy::SimdShaSigma3               0      0.00%     67.39% # attempts to use FU when none available (Count)
system.cpu0.statFuBusy::SimdPredAlu                 0      0.00%     67.39% # attempts to use FU when none available (Count)
system.cpu0.statFuBusy::MemRead                 11972     18.11%     85.49% # attempts to use FU when none available (Count)
system.cpu0.statFuBusy::MemWrite                 7726     11.68%     97.18% # attempts to use FU when none available (Count)
system.cpu0.statFuBusy::FloatMemRead             1413      2.14%     99.31% # attempts to use FU when none available (Count)
system.cpu0.statFuBusy::FloatMemWrite             453      0.69%    100.00% # attempts to use FU when none available (Count)
system.cpu0.statFuBusy::IprAccess                   0      0.00%    100.00% # attempts to use FU when none available (Count)
system.cpu0.statFuBusy::InstPrefetch                0      0.00%    100.00% # attempts to use FU when none available (Count)
system.cpu0.statIssuedInstType_0::No_OpClass        18485      0.41%      0.41% # Number of instructions issued per FU type, per thread (Count)
system.cpu0.statIssuedInstType_0::IntAlu      3493557     78.41%     78.82% # Number of instructions issued per FU type, per thread (Count)
system.cpu0.statIssuedInstType_0::IntMult           38      0.00%     78.82% # Number of instructions issued per FU type, per thread (Count)
system.cpu0.statIssuedInstType_0::IntDiv        38183      0.86%     79.68% # Number of instructions issued per FU type, per thread (Count)
system.cpu0.statIssuedInstType_0::FloatAdd         4317      0.10%     79.78% # Number of instructions issued per FU type, per thread (Count)
system.cpu0.statIssuedInstType_0::FloatCmp            0      0.00%     79.78% # Number of instructions issued per FU type, per thread (Count)
system.cpu0.statIssuedInstType_0::FloatCvt         1728      0.04%     79.82% # Number of instructions issued per FU type, per thread (Count)
system.cpu0.statIssuedInstType_0::FloatMult            0      0.00%     79.82% # Number of instructions issued per FU type, per thread (Count)
system.cpu0.statIssuedInstType_0::FloatMultAcc            0      0.00%     79.82% # Number of instructions issued per FU type, per thread (Count)
system.cpu0.statIssuedInstType_0::FloatDiv            0      0.00%     79.82% # Number of instructions issued per FU type, per thread (Count)
system.cpu0.statIssuedInstType_0::FloatMisc            0      0.00%     79.82% # Number of instructions issued per FU type, per thread (Count)
system.cpu0.statIssuedInstType_0::FloatSqrt            0      0.00%     79.82% # Number of instructions issued per FU type, per thread (Count)
system.cpu0.statIssuedInstType_0::SimdAdd         8177      0.18%     80.00% # Number of instructions issued per FU type, per thread (Count)
system.cpu0.statIssuedInstType_0::SimdAddAcc            0      0.00%     80.00% # Number of instructions issued per FU type, per thread (Count)
system.cpu0.statIssuedInstType_0::SimdAlu        16696      0.37%     80.38% # Number of instructions issued per FU type, per thread (Count)
system.cpu0.statIssuedInstType_0::SimdCmp            0      0.00%     80.38% # Number of instructions issued per FU type, per thread (Count)
system.cpu0.statIssuedInstType_0::SimdCvt        18229      0.41%     80.78% # Number of instructions issued per FU type, per thread (Count)
system.cpu0.statIssuedInstType_0::SimdMisc         8670      0.19%     80.98% # Number of instructions issued per FU type, per thread (Count)
system.cpu0.statIssuedInstType_0::SimdMult            0      0.00%     80.98% # Number of instructions issued per FU type, per thread (Count)
system.cpu0.statIssuedInstType_0::SimdMultAcc            0      0.00%     80.98% # Number of instructions issued per FU type, per thread (Count)
system.cpu0.statIssuedInstType_0::SimdShift         2429      0.05%     81.03% # Number of instructions issued per FU type, per thread (Count)
system.cpu0.statIssuedInstType_0::SimdShiftAcc            0      0.00%     81.03% # Number of instructions issued per FU type, per thread (Count)
system.cpu0.statIssuedInstType_0::SimdDiv            0      0.00%     81.03% # Number of instructions issued per FU type, per thread (Count)
system.cpu0.statIssuedInstType_0::SimdSqrt            0      0.00%     81.03% # Number of instructions issued per FU type, per thread (Count)
system.cpu0.statIssuedInstType_0::SimdFloatAdd            0      0.00%     81.03% # Number of instructions issued per FU type, per thread (Count)
system.cpu0.statIssuedInstType_0::SimdFloatAlu            0      0.00%     81.03% # Number of instructions issued per FU type, per thread (Count)
system.cpu0.statIssuedInstType_0::SimdFloatCmp            0      0.00%     81.03% # Number of instructions issued per FU type, per thread (Count)
system.cpu0.statIssuedInstType_0::SimdFloatCvt            0      0.00%     81.03% # Number of instructions issued per FU type, per thread (Count)
system.cpu0.statIssuedInstType_0::SimdFloatDiv            0      0.00%     81.03% # Number of instructions issued per FU type, per thread (Count)
system.cpu0.statIssuedInstType_0::SimdFloatMisc            0      0.00%     81.03% # Number of instructions issued per FU type, per thread (Count)
system.cpu0.statIssuedInstType_0::SimdFloatMult            0      0.00%     81.03% # Number of instructions issued per FU type, per thread (Count)
system.cpu0.statIssuedInstType_0::SimdFloatMultAcc            0      0.00%     81.03% # Number of instructions issued per FU type, per thread (Count)
system.cpu0.statIssuedInstType_0::SimdFloatSqrt            0      0.00%     81.03% # Number of instructions issued per FU type, per thread (Count)
system.cpu0.statIssuedInstType_0::SimdReduceAdd            0      0.00%     81.03% # Number of instructions issued per FU type, per thread (Count)
system.cpu0.statIssuedInstType_0::SimdReduceAlu            0      0.00%     81.03% # Number of instructions issued per FU type, per thread (Count)
system.cpu0.statIssuedInstType_0::SimdReduceCmp            0      0.00%     81.03% # Number of instructions issued per FU type, per thread (Count)
system.cpu0.statIssuedInstType_0::SimdFloatReduceAdd            0      0.00%     81.03% # Number of instructions issued per FU type, per thread (Count)
system.cpu0.statIssuedInstType_0::SimdFloatReduceCmp            0      0.00%     81.03% # Number of instructions issued per FU type, per thread (Count)
system.cpu0.statIssuedInstType_0::SimdAes            0      0.00%     81.03% # Number of instructions issued per FU type, per thread (Count)
system.cpu0.statIssuedInstType_0::SimdAesMix            0      0.00%     81.03% # Number of instructions issued per FU type, per thread (Count)
system.cpu0.statIssuedInstType_0::SimdSha1Hash            0      0.00%     81.03% # Number of instructions issued per FU type, per thread (Count)
system.cpu0.statIssuedInstType_0::SimdSha1Hash2            0      0.00%     81.03% # Number of instructions issued per FU type, per thread (Count)
system.cpu0.statIssuedInstType_0::SimdSha256Hash            0      0.00%     81.03% # Number of instructions issued per FU type, per thread (Count)
system.cpu0.statIssuedInstType_0::SimdSha256Hash2            0      0.00%     81.03% # Number of instructions issued per FU type, per thread (Count)
system.cpu0.statIssuedInstType_0::SimdShaSigma2            0      0.00%     81.03% # Number of instructions issued per FU type, per thread (Count)
system.cpu0.statIssuedInstType_0::SimdShaSigma3            0      0.00%     81.03% # Number of instructions issued per FU type, per thread (Count)
system.cpu0.statIssuedInstType_0::SimdPredAlu            0      0.00%     81.03% # Number of instructions issued per FU type, per thread (Count)
system.cpu0.statIssuedInstType_0::MemRead       605034     13.58%     94.61% # Number of instructions issued per FU type, per thread (Count)
system.cpu0.statIssuedInstType_0::MemWrite       188880      4.24%     98.85% # Number of instructions issued per FU type, per thread (Count)
system.cpu0.statIssuedInstType_0::FloatMemRead        33198      0.75%     99.60% # Number of instructions issued per FU type, per thread (Count)
system.cpu0.statIssuedInstType_0::FloatMemWrite        17950      0.40%    100.00% # Number of instructions issued per FU type, per thread (Count)
system.cpu0.statIssuedInstType_0::IprAccess            0      0.00%    100.00% # Number of instructions issued per FU type, per thread (Count)
system.cpu0.statIssuedInstType_0::InstPrefetch            0      0.00%    100.00% # Number of instructions issued per FU type, per thread (Count)
system.cpu0.statIssuedInstType_0::total       4455571                       # Number of instructions issued per FU type, per thread (Count)
system.cpu0.issueRate                        0.421731                       # Inst issue rate ((Count/Cycle))
system.cpu0.fuBusy                              66122                       # FU busy when requested (Count)
system.cpu0.fuBusyRate                       0.014840                       # FU busy rate (busy events/executed inst) ((Count/Count))
system.cpu0.intInstQueueReads                18106996                       # Number of integer instruction queue reads (Count)
system.cpu0.intInstQueueWrites                5692621                       # Number of integer instruction queue writes (Count)
system.cpu0.intInstQueueWakeupAccesses        4286553                       # Number of integer instruction queue wakeup accesses (Count)
system.cpu0.fpInstQueueReads                   227544                       # Number of floating instruction queue reads (Count)
system.cpu0.fpInstQueueWrites                  172741                       # Number of floating instruction queue writes (Count)
system.cpu0.fpInstQueueWakeupAccesses          108750                       # Number of floating instruction queue wakeup accesses (Count)
system.cpu0.vecInstQueueReads                       0                       # Number of vector instruction queue reads (Count)
system.cpu0.vecInstQueueWrites                      0                       # Number of vector instruction queue writes (Count)
system.cpu0.vecInstQueueWakeupAccesses              0                       # Number of vector instruction queue wakeup accesses (Count)
system.cpu0.intAluAccesses                    4388460                       # Number of integer alu accesses (Count)
system.cpu0.fpAluAccesses                      114748                       # Number of floating point alu accesses (Count)
system.cpu0.vecAluAccesses                          0                       # Number of vector alu accesses (Count)
system.cpu0.numInsts                          4425031                       # Number of executed instructions (Count)
system.cpu0.numLoadInsts                       630552                       # Number of load instructions executed (Count)
system.cpu0.numSquashedInsts                    30540                       # Number of squashed instructions skipped in execute (Count)
system.cpu0.numSwp                                  0                       # Number of swp insts executed (Count)
system.cpu0.numNop                                  0                       # Number of nop insts executed (Count)
system.cpu0.numRefs                            835387                       # Number of memory reference insts executed (Count)
system.cpu0.numBranches                        399547                       # Number of branches executed (Count)
system.cpu0.numStoreInsts                      204835                       # Number of stores executed (Count)
system.cpu0.numRate                          0.418841                       # Inst execution rate ((Count/Cycle))
system.cpu0.timesIdled                           2365                       # Number of times that the entire CPU went into an idle state and unscheduled itself (Count)
system.cpu0.idleCycles                        1210593                       # Total number of cycles that the CPU has spent unscheduled due to idling (Cycle)
system.cpu0.committedInsts                    2172886                       # Number of Instructions Simulated (Count)
system.cpu0.committedOps                      3772129                       # Number of Ops (including micro ops) Simulated (Count)
system.cpu0.cpi                              4.862176                       # CPI: Cycles Per Instruction ((Cycle/Count))
system.cpu0.totalCpi                         4.862176                       # CPI: Total CPI of All Threads ((Cycle/Count))
system.cpu0.ipc                              0.205669                       # IPC: Instructions Per Cycle ((Count/Cycle))
system.cpu0.totalIpc                         0.205669                       # IPC: Total IPC of All Threads ((Count/Cycle))
system.cpu0.intRegfileReads                   5995881                       # Number of integer regfile reads (Count)
system.cpu0.intRegfileWrites                  3438306                       # Number of integer regfile writes (Count)
system.cpu0.fpRegfileReads                     147055                       # Number of floating regfile reads (Count)
system.cpu0.fpRegfileWrites                     81806                       # Number of floating regfile writes (Count)
system.cpu0.ccRegfileReads                    2518504                       # number of cc regfile reads (Count)
system.cpu0.ccRegfileWrites                   2045612                       # number of cc regfile writes (Count)
system.cpu0.miscRegfileReads                  1678947                       # number of misc regfile reads (Count)
system.cpu0.miscRegfileWrites                     846                       # number of misc regfile writes (Count)
system.cpu0.MemDepUnit__0.insertedLoads        658300                       # Number of loads inserted to the mem dependence unit. (Count)
system.cpu0.MemDepUnit__0.insertedStores       216928                       # Number of stores inserted to the mem dependence unit. (Count)
system.cpu0.MemDepUnit__0.conflictingLoads        18485                       # Number of conflicting loads. (Count)
system.cpu0.MemDepUnit__0.conflictingStores         9249                       # Number of conflicting stores. (Count)
system.cpu0.MemDepUnit__1.insertedLoads             0                       # Number of loads inserted to the mem dependence unit. (Count)
system.cpu0.MemDepUnit__1.insertedStores            0                       # Number of stores inserted to the mem dependence unit. (Count)
system.cpu0.MemDepUnit__1.conflictingLoads            0                       # Number of conflicting loads. (Count)
system.cpu0.MemDepUnit__1.conflictingStores            0                       # Number of conflicting stores. (Count)
system.cpu0.MemDepUnit__2.insertedLoads             0                       # Number of loads inserted to the mem dependence unit. (Count)
system.cpu0.MemDepUnit__2.insertedStores            0                       # Number of stores inserted to the mem dependence unit. (Count)
system.cpu0.MemDepUnit__2.conflictingLoads            0                       # Number of conflicting loads. (Count)
system.cpu0.MemDepUnit__2.conflictingStores            0                       # Number of conflicting stores. (Count)
system.cpu0.MemDepUnit__3.insertedLoads             0                       # Number of loads inserted to the mem dependence unit. (Count)
system.cpu0.MemDepUnit__3.insertedStores            0                       # Number of stores inserted to the mem dependence unit. (Count)
system.cpu0.MemDepUnit__3.conflictingLoads            0                       # Number of conflicting loads. (Count)
system.cpu0.MemDepUnit__3.conflictingStores            0                       # Number of conflicting stores. (Count)
system.cpu0.branchPred.lookups                 516051                       # Number of BP lookups (Count)
system.cpu0.branchPred.condPredicted           456860                       # Number of conditional branches predicted (Count)
system.cpu0.branchPred.condIncorrect            17166                       # Number of conditional branches incorrect (Count)
system.cpu0.branchPred.BTBLookups              271920                       # Number of BTB lookups (Count)
system.cpu0.branchPred.BTBUpdates                8688                       # Number of BTB updates (Count)
system.cpu0.branchPred.BTBHits                 267856                       # Number of BTB hits (Count)
system.cpu0.branchPred.BTBHitRatio           0.985054                       # BTB Hit Ratio (Ratio)
system.cpu0.branchPred.RASUsed                  13400                       # Number of times the RAS was used to get a target. (Count)
system.cpu0.branchPred.RASIncorrect                 7                       # Number of incorrect RAS predictions. (Count)
system.cpu0.branchPred.indirectLookups           9922                       # Number of indirect predictor lookups. (Count)
system.cpu0.branchPred.indirectHits              5163                       # Number of indirect target hits. (Count)
system.cpu0.branchPred.indirectMisses            4759                       # Number of indirect misses. (Count)
system.cpu0.branchPred.indirectMispredicted         1187                       # Number of mispredicted indirect branches. (Count)
system.cpu0.commit.commitSquashedInsts        1037537                       # The number of squashed insts skipped by commit (Count)
system.cpu0.commit.commitNonSpecStalls            853                       # The number of times commit has been forced to stall to communicate backwards (Count)
system.cpu0.commit.branchMispredicts            18758                       # The number of times a branch was mispredicted (Count)
system.cpu0.commit.numCommittedDist::samples      9203620                       # Number of insts commited each cycle (Count)
system.cpu0.commit.numCommittedDist::mean     0.409853                       # Number of insts commited each cycle (Count)
system.cpu0.commit.numCommittedDist::stdev     1.464354                       # Number of insts commited each cycle (Count)
system.cpu0.commit.numCommittedDist::underflows            0      0.00%      0.00% # Number of insts commited each cycle (Count)
system.cpu0.commit.numCommittedDist::0        8243403     89.57%     89.57% # Number of insts commited each cycle (Count)
system.cpu0.commit.numCommittedDist::1         230220      2.50%     92.07% # Number of insts commited each cycle (Count)
system.cpu0.commit.numCommittedDist::2          92977      1.01%     93.08% # Number of insts commited each cycle (Count)
system.cpu0.commit.numCommittedDist::3         241919      2.63%     95.71% # Number of insts commited each cycle (Count)
system.cpu0.commit.numCommittedDist::4          45615      0.50%     96.20% # Number of insts commited each cycle (Count)
system.cpu0.commit.numCommittedDist::5          99402      1.08%     97.28% # Number of insts commited each cycle (Count)
system.cpu0.commit.numCommittedDist::6          15560      0.17%     97.45% # Number of insts commited each cycle (Count)
system.cpu0.commit.numCommittedDist::7          18824      0.20%     97.66% # Number of insts commited each cycle (Count)
system.cpu0.commit.numCommittedDist::8         215700      2.34%    100.00% # Number of insts commited each cycle (Count)
system.cpu0.commit.numCommittedDist::overflows            0      0.00%    100.00% # Number of insts commited each cycle (Count)
system.cpu0.commit.numCommittedDist::min_value            0                       # Number of insts commited each cycle (Count)
system.cpu0.commit.numCommittedDist::max_value            8                       # Number of insts commited each cycle (Count)
system.cpu0.commit.numCommittedDist::total      9203620                       # Number of insts commited each cycle (Count)
system.cpu0.commit.instsCommitted             2172886                       # Number of instructions committed (Count)
system.cpu0.commit.opsCommitted               3772129                       # Number of ops (including micro ops) committed (Count)
system.cpu0.commit.memRefs                     700181                       # Number of memory references committed (Count)
system.cpu0.commit.loads                       521032                       # Number of loads committed (Count)
system.cpu0.commit.amos                             0                       # Number of atomic instructions committed (Count)
system.cpu0.commit.membars                          2                       # Number of memory barriers committed (Count)
system.cpu0.commit.branches                    363718                       # Number of branches committed (Count)
system.cpu0.commit.vectorInstructions               0                       # Number of committed Vector instructions. (Count)
system.cpu0.commit.floating                     80373                       # Number of committed floating point instructions. (Count)
system.cpu0.commit.integer                    3713390                       # Number of committed integer instructions. (Count)
system.cpu0.commit.functionCalls                 9592                       # Number of function calls committed. (Count)
system.cpu0.commit.committedInstType_0::No_OpClass        10772      0.29%      0.29% # Class of committed instruction (Count)
system.cpu0.commit.committedInstType_0::IntAlu      2980762     79.02%     79.31% # Class of committed instruction (Count)
system.cpu0.commit.committedInstType_0::IntMult           29      0.00%     79.31% # Class of committed instruction (Count)
system.cpu0.commit.committedInstType_0::IntDiv        35830      0.95%     80.26% # Class of committed instruction (Count)
system.cpu0.commit.committedInstType_0::FloatAdd         3175      0.08%     80.34% # Class of committed instruction (Count)
system.cpu0.commit.committedInstType_0::FloatCmp            0      0.00%     80.34% # Class of committed instruction (Count)
system.cpu0.commit.committedInstType_0::FloatCvt         1504      0.04%     80.38% # Class of committed instruction (Count)
system.cpu0.commit.committedInstType_0::FloatMult            0      0.00%     80.38% # Class of committed instruction (Count)
system.cpu0.commit.committedInstType_0::FloatMultAcc            0      0.00%     80.38% # Class of committed instruction (Count)
system.cpu0.commit.committedInstType_0::FloatDiv            0      0.00%     80.38% # Class of committed instruction (Count)
system.cpu0.commit.committedInstType_0::FloatMisc            0      0.00%     80.38% # Class of committed instruction (Count)
system.cpu0.commit.committedInstType_0::FloatSqrt            0      0.00%     80.38% # Class of committed instruction (Count)
system.cpu0.commit.committedInstType_0::SimdAdd         6610      0.18%     80.56% # Class of committed instruction (Count)
system.cpu0.commit.committedInstType_0::SimdAddAcc            0      0.00%     80.56% # Class of committed instruction (Count)
system.cpu0.commit.committedInstType_0::SimdAlu        11924      0.32%     80.87% # Class of committed instruction (Count)
system.cpu0.commit.committedInstType_0::SimdCmp            0      0.00%     80.87% # Class of committed instruction (Count)
system.cpu0.commit.committedInstType_0::SimdCvt        12922      0.34%     81.21% # Class of committed instruction (Count)
system.cpu0.commit.committedInstType_0::SimdMisc         7067      0.19%     81.40% # Class of committed instruction (Count)
system.cpu0.commit.committedInstType_0::SimdMult            0      0.00%     81.40% # Class of committed instruction (Count)
system.cpu0.commit.committedInstType_0::SimdMultAcc            0      0.00%     81.40% # Class of committed instruction (Count)
system.cpu0.commit.committedInstType_0::SimdShift         1353      0.04%     81.44% # Class of committed instruction (Count)
system.cpu0.commit.committedInstType_0::SimdShiftAcc            0      0.00%     81.44% # Class of committed instruction (Count)
system.cpu0.commit.committedInstType_0::SimdDiv            0      0.00%     81.44% # Class of committed instruction (Count)
system.cpu0.commit.committedInstType_0::SimdSqrt            0      0.00%     81.44% # Class of committed instruction (Count)
system.cpu0.commit.committedInstType_0::SimdFloatAdd            0      0.00%     81.44% # Class of committed instruction (Count)
system.cpu0.commit.committedInstType_0::SimdFloatAlu            0      0.00%     81.44% # Class of committed instruction (Count)
system.cpu0.commit.committedInstType_0::SimdFloatCmp            0      0.00%     81.44% # Class of committed instruction (Count)
system.cpu0.commit.committedInstType_0::SimdFloatCvt            0      0.00%     81.44% # Class of committed instruction (Count)
system.cpu0.commit.committedInstType_0::SimdFloatDiv            0      0.00%     81.44% # Class of committed instruction (Count)
system.cpu0.commit.committedInstType_0::SimdFloatMisc            0      0.00%     81.44% # Class of committed instruction (Count)
system.cpu0.commit.committedInstType_0::SimdFloatMult            0      0.00%     81.44% # Class of committed instruction (Count)
system.cpu0.commit.committedInstType_0::SimdFloatMultAcc            0      0.00%     81.44% # Class of committed instruction (Count)
system.cpu0.commit.committedInstType_0::SimdFloatSqrt            0      0.00%     81.44% # Class of committed instruction (Count)
system.cpu0.commit.committedInstType_0::SimdReduceAdd            0      0.00%     81.44% # Class of committed instruction (Count)
system.cpu0.commit.committedInstType_0::SimdReduceAlu            0      0.00%     81.44% # Class of committed instruction (Count)
system.cpu0.commit.committedInstType_0::SimdReduceCmp            0      0.00%     81.44% # Class of committed instruction (Count)
system.cpu0.commit.committedInstType_0::SimdFloatReduceAdd            0      0.00%     81.44% # Class of committed instruction (Count)
system.cpu0.commit.committedInstType_0::SimdFloatReduceCmp            0      0.00%     81.44% # Class of committed instruction (Count)
system.cpu0.commit.committedInstType_0::SimdAes            0      0.00%     81.44% # Class of committed instruction (Count)
system.cpu0.commit.committedInstType_0::SimdAesMix            0      0.00%     81.44% # Class of committed instruction (Count)
system.cpu0.commit.committedInstType_0::SimdSha1Hash            0      0.00%     81.44% # Class of committed instruction (Count)
system.cpu0.commit.committedInstType_0::SimdSha1Hash2            0      0.00%     81.44% # Class of committed instruction (Count)
system.cpu0.commit.committedInstType_0::SimdSha256Hash            0      0.00%     81.44% # Class of committed instruction (Count)
system.cpu0.commit.committedInstType_0::SimdSha256Hash2            0      0.00%     81.44% # Class of committed instruction (Count)
system.cpu0.commit.committedInstType_0::SimdShaSigma2            0      0.00%     81.44% # Class of committed instruction (Count)
system.cpu0.commit.committedInstType_0::SimdShaSigma3            0      0.00%     81.44% # Class of committed instruction (Count)
system.cpu0.commit.committedInstType_0::SimdPredAlu            0      0.00%     81.44% # Class of committed instruction (Count)
system.cpu0.commit.committedInstType_0::MemRead       499997     13.26%     94.69% # Class of committed instruction (Count)
system.cpu0.commit.committedInstType_0::MemWrite       165235      4.38%     99.07% # Class of committed instruction (Count)
system.cpu0.commit.committedInstType_0::FloatMemRead        21035      0.56%     99.63% # Class of committed instruction (Count)
system.cpu0.commit.committedInstType_0::FloatMemWrite        13914      0.37%    100.00% # Class of committed instruction (Count)
system.cpu0.commit.committedInstType_0::IprAccess            0      0.00%    100.00% # Class of committed instruction (Count)
system.cpu0.commit.committedInstType_0::InstPrefetch            0      0.00%    100.00% # Class of committed instruction (Count)
system.cpu0.commit.committedInstType_0::total      3772129                       # Class of committed instruction (Count)
system.cpu0.commit.commitEligibleSamples       215700                       # number cycles where commit BW limit reached (Cycle)
system.cpu0.decode.idleCycles                  481764                       # Number of cycles decode is idle (Cycle)
system.cpu0.decode.blockedCycles              8137257                       # Number of cycles decode is blocked (Cycle)
system.cpu0.decode.runCycles                   521088                       # Number of cycles decode is running (Cycle)
system.cpu0.decode.unblockCycles               194776                       # Number of cycles decode is unblocking (Cycle)
system.cpu0.decode.squashCycles                 19476                       # Number of cycles decode is squashing (Cycle)
system.cpu0.decode.branchResolved              253919                       # Number of times decode resolved a branch (Count)
system.cpu0.decode.branchMispred                 1209                       # Number of times decode detected a branch misprediction (Count)
system.cpu0.decode.decodedInsts               5003358                       # Number of instructions handled by decode (Count)
system.cpu0.decode.squashedInsts                 5648                       # Number of squashed instructions handled by decode (Count)
system.cpu0.fetch.icacheStallCycles            468900                       # Number of cycles fetch is stalled on an Icache miss (Cycle)
system.cpu0.fetch.insts                       3014604                       # Number of instructions fetch has processed (Count)
system.cpu0.fetch.branches                     516051                       # Number of branches that fetch encountered (Count)
system.cpu0.fetch.predictedBranches            286419                       # Number of branches that fetch has predicted taken (Count)
system.cpu0.fetch.cycles                      8612819                       # Number of cycles fetch has run and was not squashing or blocked (Cycle)
system.cpu0.fetch.squashCycles                  41320                       # Number of cycles fetch has spent squashing (Cycle)
system.cpu0.fetch.miscStallCycles               14569                       # Number of cycles fetch has spent waiting on interrupts, or bad addresses, or out of MSHRs (Cycle)
system.cpu0.fetch.pendingTrapStallCycles        18422                       # Number of stall cycles due to pending traps (Cycle)
system.cpu0.fetch.icacheWaitRetryStallCycles       218991                       # Number of stall cycles due to full MSHR (Cycle)
system.cpu0.fetch.cacheLines                   266025                       # Number of cache lines fetched (Count)
system.cpu0.fetch.icacheSquashes                 4767                       # Number of outstanding Icache misses that were squashed (Count)
system.cpu0.fetch.nisnDist::samples           9354361                       # Number of instructions fetched each cycle (Total) (Count)
system.cpu0.fetch.nisnDist::mean             0.567601                       # Number of instructions fetched each cycle (Total) (Count)
system.cpu0.fetch.nisnDist::stdev            1.902380                       # Number of instructions fetched each cycle (Total) (Count)
system.cpu0.fetch.nisnDist::underflows              0      0.00%      0.00% # Number of instructions fetched each cycle (Total) (Count)
system.cpu0.fetch.nisnDist::0                 8476101     90.61%     90.61% # Number of instructions fetched each cycle (Total) (Count)
system.cpu0.fetch.nisnDist::1                   42030      0.45%     91.06% # Number of instructions fetched each cycle (Total) (Count)
system.cpu0.fetch.nisnDist::2                   39920      0.43%     91.49% # Number of instructions fetched each cycle (Total) (Count)
system.cpu0.fetch.nisnDist::3                   68248      0.73%     92.22% # Number of instructions fetched each cycle (Total) (Count)
system.cpu0.fetch.nisnDist::4                  137587      1.47%     93.69% # Number of instructions fetched each cycle (Total) (Count)
system.cpu0.fetch.nisnDist::5                   60216      0.64%     94.33% # Number of instructions fetched each cycle (Total) (Count)
system.cpu0.fetch.nisnDist::6                   33412      0.36%     94.69% # Number of instructions fetched each cycle (Total) (Count)
system.cpu0.fetch.nisnDist::7                   43746      0.47%     95.16% # Number of instructions fetched each cycle (Total) (Count)
system.cpu0.fetch.nisnDist::8                  453101      4.84%    100.00% # Number of instructions fetched each cycle (Total) (Count)
system.cpu0.fetch.nisnDist::overflows               0      0.00%    100.00% # Number of instructions fetched each cycle (Total) (Count)
system.cpu0.fetch.nisnDist::min_value               0                       # Number of instructions fetched each cycle (Total) (Count)
system.cpu0.fetch.nisnDist::max_value               8                       # Number of instructions fetched each cycle (Total) (Count)
system.cpu0.fetch.nisnDist::total             9354361                       # Number of instructions fetched each cycle (Total) (Count)
system.cpu0.fetch.branchRate                 0.048846                       # Number of branch fetches per cycle (Ratio)
system.cpu0.fetch.rate                       0.285340                       # Number of inst fetches per cycle ((Count/Cycle))
system.cpu0.iew.idleCycles                          0                       # Number of cycles IEW is idle (Cycle)
system.cpu0.iew.squashCycles                    19476                       # Number of cycles IEW is squashing (Cycle)
system.cpu0.iew.blockCycles                   5374034                       # Number of cycles IEW is blocking (Cycle)
system.cpu0.iew.unblockCycles                  166602                       # Number of cycles IEW is unblocking (Cycle)
system.cpu0.iew.dispatchedInsts               4818675                       # Number of instructions dispatched to IQ (Count)
system.cpu0.iew.dispSquashedInsts                1082                       # Number of squashed instructions skipped by dispatch (Count)
system.cpu0.iew.dispLoadInsts                  658300                       # Number of dispatched load instructions (Count)
system.cpu0.iew.dispStoreInsts                 216928                       # Number of dispatched store instructions (Count)
system.cpu0.iew.dispNonSpecInsts                  900                       # Number of dispatched non-speculative instructions (Count)
system.cpu0.iew.iqFullEvents                     7306                       # Number of times the IQ has become full, causing a stall (Count)
system.cpu0.iew.lsqFullEvents                  154128                       # Number of times the LSQ has become full, causing a stall (Count)
system.cpu0.iew.memOrderViolationEvents           150                       # Number of memory order violations (Count)
system.cpu0.iew.predictedTakenIncorrect          7941                       # Number of branches that were predicted taken incorrectly (Count)
system.cpu0.iew.predictedNotTakenIncorrect        13057                       # Number of branches that were predicted not taken incorrectly (Count)
system.cpu0.iew.branchMispredicts               20998                       # Number of branch mispredicts detected at execute (Count)
system.cpu0.iew.instsToCommit                 4407543                       # Cumulative count of insts sent to commit (Count)
system.cpu0.iew.writebackCount                4395303                       # Cumulative count of insts written-back (Count)
system.cpu0.iew.producerInst                  3540889                       # Number of instructions producing a value (Count)
system.cpu0.iew.consumerInst                  6500992                       # Number of instructions consuming a value (Count)
system.cpu0.iew.wbRate                       0.416027                       # Insts written-back per cycle ((Count/Cycle))
system.cpu0.iew.wbFanout                     0.544669                       # Average fanout of values written-back ((Count/Count))
system.cpu0.interrupts.clk_domain.clock          8000                       # Clock period in ticks (Tick)
system.cpu0.lsq0.forwLoads                      58850                       # Number of loads that had data forwarded from stores (Count)
system.cpu0.lsq0.squashedLoads                 137268                       # Number of loads squashed (Count)
system.cpu0.lsq0.ignoredResponses                  98                       # Number of memory responses ignored because the instruction is squashed (Count)
system.cpu0.lsq0.memOrderViolation                150                       # Number of memory ordering violations (Count)
system.cpu0.lsq0.squashedStores                 37779                       # Number of stores squashed (Count)
system.cpu0.lsq0.rescheduledLoads                  15                       # Number of loads that were rescheduled (Count)
system.cpu0.lsq0.blockedByCache                  2124                       # Number of times an access to memory failed due to the cache being blocked (Count)
system.cpu0.lsq0.loadToUse::samples            520954                       # Distribution of cycle latency between the first time a load is issued and its completion (Unspecified)
system.cpu0.lsq0.loadToUse::mean            66.523363                       # Distribution of cycle latency between the first time a load is issued and its completion (Unspecified)
system.cpu0.lsq0.loadToUse::stdev          224.367773                       # Distribution of cycle latency between the first time a load is issued and its completion (Unspecified)
system.cpu0.lsq0.loadToUse::0-9                475588     91.29%     91.29% # Distribution of cycle latency between the first time a load is issued and its completion (Unspecified)
system.cpu0.lsq0.loadToUse::10-19                  76      0.01%     91.31% # Distribution of cycle latency between the first time a load is issued and its completion (Unspecified)
system.cpu0.lsq0.loadToUse::20-29                 104      0.02%     91.33% # Distribution of cycle latency between the first time a load is issued and its completion (Unspecified)
system.cpu0.lsq0.loadToUse::30-39                  74      0.01%     91.34% # Distribution of cycle latency between the first time a load is issued and its completion (Unspecified)
system.cpu0.lsq0.loadToUse::40-49                  66      0.01%     91.35% # Distribution of cycle latency between the first time a load is issued and its completion (Unspecified)
system.cpu0.lsq0.loadToUse::50-59                  97      0.02%     91.37% # Distribution of cycle latency between the first time a load is issued and its completion (Unspecified)
system.cpu0.lsq0.loadToUse::60-69                  98      0.02%     91.39% # Distribution of cycle latency between the first time a load is issued and its completion (Unspecified)
system.cpu0.lsq0.loadToUse::70-79                  64      0.01%     91.40% # Distribution of cycle latency between the first time a load is issued and its completion (Unspecified)
system.cpu0.lsq0.loadToUse::80-89                  50      0.01%     91.41% # Distribution of cycle latency between the first time a load is issued and its completion (Unspecified)
system.cpu0.lsq0.loadToUse::90-99                  48      0.01%     91.42% # Distribution of cycle latency between the first time a load is issued and its completion (Unspecified)
system.cpu0.lsq0.loadToUse::100-109                81      0.02%     91.44% # Distribution of cycle latency between the first time a load is issued and its completion (Unspecified)
system.cpu0.lsq0.loadToUse::110-119                63      0.01%     91.45% # Distribution of cycle latency between the first time a load is issued and its completion (Unspecified)
system.cpu0.lsq0.loadToUse::120-129                80      0.02%     91.46% # Distribution of cycle latency between the first time a load is issued and its completion (Unspecified)
system.cpu0.lsq0.loadToUse::130-139                25      0.00%     91.47% # Distribution of cycle latency between the first time a load is issued and its completion (Unspecified)
system.cpu0.lsq0.loadToUse::140-149                71      0.01%     91.48% # Distribution of cycle latency between the first time a load is issued and its completion (Unspecified)
system.cpu0.lsq0.loadToUse::150-159                64      0.01%     91.50% # Distribution of cycle latency between the first time a load is issued and its completion (Unspecified)
system.cpu0.lsq0.loadToUse::160-169                73      0.01%     91.51% # Distribution of cycle latency between the first time a load is issued and its completion (Unspecified)
system.cpu0.lsq0.loadToUse::170-179               163      0.03%     91.54% # Distribution of cycle latency between the first time a load is issued and its completion (Unspecified)
system.cpu0.lsq0.loadToUse::180-189               605      0.12%     91.66% # Distribution of cycle latency between the first time a load is issued and its completion (Unspecified)
system.cpu0.lsq0.loadToUse::190-199                34      0.01%     91.66% # Distribution of cycle latency between the first time a load is issued and its completion (Unspecified)
system.cpu0.lsq0.loadToUse::200-209                42      0.01%     91.67% # Distribution of cycle latency between the first time a load is issued and its completion (Unspecified)
system.cpu0.lsq0.loadToUse::210-219                64      0.01%     91.68% # Distribution of cycle latency between the first time a load is issued and its completion (Unspecified)
system.cpu0.lsq0.loadToUse::220-229                69      0.01%     91.70% # Distribution of cycle latency between the first time a load is issued and its completion (Unspecified)
system.cpu0.lsq0.loadToUse::230-239               125      0.02%     91.72% # Distribution of cycle latency between the first time a load is issued and its completion (Unspecified)
system.cpu0.lsq0.loadToUse::240-249               548      0.11%     91.83% # Distribution of cycle latency between the first time a load is issued and its completion (Unspecified)
system.cpu0.lsq0.loadToUse::250-259                37      0.01%     91.83% # Distribution of cycle latency between the first time a load is issued and its completion (Unspecified)
system.cpu0.lsq0.loadToUse::260-269                45      0.01%     91.84% # Distribution of cycle latency between the first time a load is issued and its completion (Unspecified)
system.cpu0.lsq0.loadToUse::270-279                52      0.01%     91.85% # Distribution of cycle latency between the first time a load is issued and its completion (Unspecified)
system.cpu0.lsq0.loadToUse::280-289                81      0.02%     91.87% # Distribution of cycle latency between the first time a load is issued and its completion (Unspecified)
system.cpu0.lsq0.loadToUse::290-299               113      0.02%     91.89% # Distribution of cycle latency between the first time a load is issued and its completion (Unspecified)
system.cpu0.lsq0.loadToUse::overflows           42254      8.11%    100.00% # Distribution of cycle latency between the first time a load is issued and its completion (Unspecified)
system.cpu0.lsq0.loadToUse::min_value               2                       # Distribution of cycle latency between the first time a load is issued and its completion (Unspecified)
system.cpu0.lsq0.loadToUse::max_value            2422                       # Distribution of cycle latency between the first time a load is issued and its completion (Unspecified)
system.cpu0.lsq0.loadToUse::total              520954                       # Distribution of cycle latency between the first time a load is issued and its completion (Unspecified)
system.cpu0.mmu.dtb.rdAccesses                 624901                       # TLB accesses on read requests (Count)
system.cpu0.mmu.dtb.wrAccesses                 204846                       # TLB accesses on write requests (Count)
system.cpu0.mmu.dtb.rdMisses                     3113                       # TLB misses on read requests (Count)
system.cpu0.mmu.dtb.wrMisses                      435                       # TLB misses on write requests (Count)
system.cpu0.mmu.dtb.walker.power_state.pwrStateResidencyTicks::UNDEFINED   5311771500                       # Cumulative time (in ticks) in various power states (Tick)
system.cpu0.mmu.itb.rdAccesses                      0                       # TLB accesses on read requests (Count)
system.cpu0.mmu.itb.wrAccesses                 268886                       # TLB accesses on write requests (Count)
system.cpu0.mmu.itb.rdMisses                        0                       # TLB misses on read requests (Count)
system.cpu0.mmu.itb.wrMisses                     3421                       # TLB misses on write requests (Count)
system.cpu0.mmu.itb.walker.power_state.pwrStateResidencyTicks::UNDEFINED   5311771500                       # Cumulative time (in ticks) in various power states (Tick)
system.cpu0.power_state.pwrStateResidencyTicks::ON   5311771500                       # Cumulative time (in ticks) in various power states (Tick)
system.cpu0.rename.squashCycles                 19476                       # Number of cycles rename is squashing (Cycle)
system.cpu0.rename.idleCycles                  555302                       # Number of cycles rename is idle (Cycle)
system.cpu0.rename.blockCycles                7131083                       # Number of cycles rename is blocking (Cycle)
system.cpu0.rename.serializeStallCycles         24433                       # count of cycles rename stalled for serializing inst (Cycle)
system.cpu0.rename.runCycles                   632953                       # Number of cycles rename is running (Cycle)
system.cpu0.rename.unblockCycles               991114                       # Number of cycles rename is unblocking (Cycle)
system.cpu0.rename.renamedInsts               4922985                       # Number of instructions processed by rename (Count)
system.cpu0.rename.ROBFullEvents               110211                       # Number of times rename has blocked due to ROB full (Count)
system.cpu0.rename.IQFullEvents                250603                       # Number of times rename has blocked due to IQ full (Count)
system.cpu0.rename.LQFullEvents                160596                       # Number of times rename has blocked due to LQ full (Count)
system.cpu0.rename.SQFullEvents                531997                       # Number of times rename has blocked due to SQ full (Count)
system.cpu0.rename.fullRegistersEvents           3461                       # Number of times there has been no free registers (Count)
system.cpu0.rename.renamedOperands           10374148                       # Number of destination operands rename has renamed (Count)
system.cpu0.rename.lookups                   18606785                       # Number of register rename lookups that rename has made (Count)
system.cpu0.rename.intLookups                 6925143                       # Number of integer rename lookups (Count)
system.cpu0.rename.fpLookups                   184607                       # Number of floating rename lookups (Count)
system.cpu0.rename.committedMaps              8018327                       # Number of HB maps that are committed (Count)
system.cpu0.rename.undoneMaps                 2355821                       # Number of HB maps that are undone due to squashing (Count)
system.cpu0.rename.serializing                    873                       # count of serializing insts renamed (Count)
system.cpu0.rename.tempSerializing                859                       # count of temporary serializing insts renamed (Count)
system.cpu0.rename.skidInsts                   892927                       # count of insts added to the skid buffer (Count)
system.cpu0.rob.reads                        13789851                       # The number of ROB reads (Count)
system.cpu0.rob.writes                        9770299                       # The number of ROB writes (Count)
system.cpu0.thread_0.numInsts                 2172886                       # Number of Instructions committed (Count)
system.cpu0.thread_0.numOps                   3772129                       # Number of Ops committed (Count)
system.cpu0.thread_0.numMemRefs                     0                       # Number of Memory References (Count)
system.cpu0.workload.numSyscalls                   63                       # Number of system calls (Count)
system.cpu1.numCycles                        10195445                       # Number of cpu cycles simulated (Cycle)
system.cpu1.numWorkItemsStarted                     0                       # Number of work items this cpu started (Count)
system.cpu1.numWorkItemsCompleted                   0                       # Number of work items this cpu completed (Count)
system.cpu1.instsAdded                        4819884                       # Number of instructions added to the IQ (excludes non-spec) (Count)
system.cpu1.nonSpecInstsAdded                    1100                       # Number of non-speculative instructions added to the IQ (Count)
system.cpu1.instsIssued                       4457091                       # Number of instructions issued (Count)
system.cpu1.squashedInstsIssued                  2818                       # Number of squashed instructions issued (Count)
system.cpu1.squashedInstsExamined             1048855                       # Number of squashed instructions iterated over during squash; mainly for profiling (Count)
system.cpu1.squashedOperandsExamined          2263418                       # Number of squashed operands that are examined and possibly removed from graph (Count)
system.cpu1.squashedNonSpecRemoved                247                       # Number of squashed non-spec instructions that were removed (Count)
system.cpu1.numIssuedDist::samples            9057339                       # Number of insts issued each cycle (Count)
system.cpu1.numIssuedDist::mean              0.492097                       # Number of insts issued each cycle (Count)
system.cpu1.numIssuedDist::stdev             1.424016                       # Number of insts issued each cycle (Count)
system.cpu1.numIssuedDist::underflows               0      0.00%      0.00% # Number of insts issued each cycle (Count)
system.cpu1.numIssuedDist::0                  7811643     86.25%     86.25% # Number of insts issued each cycle (Count)
system.cpu1.numIssuedDist::1                   198452      2.19%     88.44% # Number of insts issued each cycle (Count)
system.cpu1.numIssuedDist::2                   228042      2.52%     90.96% # Number of insts issued each cycle (Count)
system.cpu1.numIssuedDist::3                   239954      2.65%     93.60% # Number of insts issued each cycle (Count)
system.cpu1.numIssuedDist::4                   194613      2.15%     95.75% # Number of insts issued each cycle (Count)
system.cpu1.numIssuedDist::5                   149028      1.65%     97.40% # Number of insts issued each cycle (Count)
system.cpu1.numIssuedDist::6                   128880      1.42%     98.82% # Number of insts issued each cycle (Count)
system.cpu1.numIssuedDist::7                    67995      0.75%     99.57% # Number of insts issued each cycle (Count)
system.cpu1.numIssuedDist::8                    38732      0.43%    100.00% # Number of insts issued each cycle (Count)
system.cpu1.numIssuedDist::overflows                0      0.00%    100.00% # Number of insts issued each cycle (Count)
system.cpu1.numIssuedDist::min_value                0                       # Number of insts issued each cycle (Count)
system.cpu1.numIssuedDist::max_value                8                       # Number of insts issued each cycle (Count)
system.cpu1.numIssuedDist::total              9057339                       # Number of insts issued each cycle (Count)
system.cpu1.statFuBusy::No_OpClass                  0      0.00%      0.00% # attempts to use FU when none available (Count)
system.cpu1.statFuBusy::IntAlu                  44238     66.85%     66.85% # attempts to use FU when none available (Count)
system.cpu1.statFuBusy::IntMult                     0      0.00%     66.85% # attempts to use FU when none available (Count)
system.cpu1.statFuBusy::IntDiv                      0      0.00%     66.85% # attempts to use FU when none available (Count)
system.cpu1.statFuBusy::FloatAdd                    0      0.00%     66.85% # attempts to use FU when none available (Count)
system.cpu1.statFuBusy::FloatCmp                    0      0.00%     66.85% # attempts to use FU when none available (Count)
system.cpu1.statFuBusy::FloatCvt                    0      0.00%     66.85% # attempts to use FU when none available (Count)
system.cpu1.statFuBusy::FloatMult                   0      0.00%     66.85% # attempts to use FU when none available (Count)
system.cpu1.statFuBusy::FloatMultAcc                0      0.00%     66.85% # attempts to use FU when none available (Count)
system.cpu1.statFuBusy::FloatDiv                    0      0.00%     66.85% # attempts to use FU when none available (Count)
system.cpu1.statFuBusy::FloatMisc                   0      0.00%     66.85% # attempts to use FU when none available (Count)
system.cpu1.statFuBusy::FloatSqrt                   0      0.00%     66.85% # attempts to use FU when none available (Count)
system.cpu1.statFuBusy::SimdAdd                     0      0.00%     66.85% # attempts to use FU when none available (Count)
system.cpu1.statFuBusy::SimdAddAcc                  0      0.00%     66.85% # attempts to use FU when none available (Count)
system.cpu1.statFuBusy::SimdAlu                   124      0.19%     67.03% # attempts to use FU when none available (Count)
system.cpu1.statFuBusy::SimdCmp                     0      0.00%     67.03% # attempts to use FU when none available (Count)
system.cpu1.statFuBusy::SimdCvt                   118      0.18%     67.21% # attempts to use FU when none available (Count)
system.cpu1.statFuBusy::SimdMisc                    1      0.00%     67.21% # attempts to use FU when none available (Count)
system.cpu1.statFuBusy::SimdMult                    0      0.00%     67.21% # attempts to use FU when none available (Count)
system.cpu1.statFuBusy::SimdMultAcc                 0      0.00%     67.21% # attempts to use FU when none available (Count)
system.cpu1.statFuBusy::SimdShift                 138      0.21%     67.42% # attempts to use FU when none available (Count)
system.cpu1.statFuBusy::SimdShiftAcc                0      0.00%     67.42% # attempts to use FU when none available (Count)
system.cpu1.statFuBusy::SimdDiv                     0      0.00%     67.42% # attempts to use FU when none available (Count)
system.cpu1.statFuBusy::SimdSqrt                    0      0.00%     67.42% # attempts to use FU when none available (Count)
system.cpu1.statFuBusy::SimdFloatAdd                0      0.00%     67.42% # attempts to use FU when none available (Count)
system.cpu1.statFuBusy::SimdFloatAlu                0      0.00%     67.42% # attempts to use FU when none available (Count)
system.cpu1.statFuBusy::SimdFloatCmp                0      0.00%     67.42% # attempts to use FU when none available (Count)
system.cpu1.statFuBusy::SimdFloatCvt                0      0.00%     67.42% # attempts to use FU when none available (Count)
system.cpu1.statFuBusy::SimdFloatDiv                0      0.00%     67.42% # attempts to use FU when none available (Count)
system.cpu1.statFuBusy::SimdFloatMisc               0      0.00%     67.42% # attempts to use FU when none available (Count)
system.cpu1.statFuBusy::SimdFloatMult               0      0.00%     67.42% # attempts to use FU when none available (Count)
system.cpu1.statFuBusy::SimdFloatMultAcc            0      0.00%     67.42% # attempts to use FU when none available (Count)
system.cpu1.statFuBusy::SimdFloatSqrt               0      0.00%     67.42% # attempts to use FU when none available (Count)
system.cpu1.statFuBusy::SimdReduceAdd               0      0.00%     67.42% # attempts to use FU when none available (Count)
system.cpu1.statFuBusy::SimdReduceAlu               0      0.00%     67.42% # attempts to use FU when none available (Count)
system.cpu1.statFuBusy::SimdReduceCmp               0      0.00%     67.42% # attempts to use FU when none available (Count)
system.cpu1.statFuBusy::SimdFloatReduceAdd            0      0.00%     67.42% # attempts to use FU when none available (Count)
system.cpu1.statFuBusy::SimdFloatReduceCmp            0      0.00%     67.42% # attempts to use FU when none available (Count)
system.cpu1.statFuBusy::SimdAes                     0      0.00%     67.42% # attempts to use FU when none available (Count)
system.cpu1.statFuBusy::SimdAesMix                  0      0.00%     67.42% # attempts to use FU when none available (Count)
system.cpu1.statFuBusy::SimdSha1Hash                0      0.00%     67.42% # attempts to use FU when none available (Count)
system.cpu1.statFuBusy::SimdSha1Hash2               0      0.00%     67.42% # attempts to use FU when none available (Count)
system.cpu1.statFuBusy::SimdSha256Hash              0      0.00%     67.42% # attempts to use FU when none available (Count)
system.cpu1.statFuBusy::SimdSha256Hash2             0      0.00%     67.42% # attempts to use FU when none available (Count)
system.cpu1.statFuBusy::SimdShaSigma2               0      0.00%     67.42% # attempts to use FU when none available (Count)
system.cpu1.statFuBusy::SimdShaSigma3               0      0.00%     67.42% # attempts to use FU when none available (Count)
system.cpu1.statFuBusy::SimdPredAlu                 0      0.00%     67.42% # attempts to use FU when none available (Count)
system.cpu1.statFuBusy::MemRead                 11969     18.09%     85.51% # attempts to use FU when none available (Count)
system.cpu1.statFuBusy::MemWrite                 7726     11.67%     97.18% # attempts to use FU when none available (Count)
system.cpu1.statFuBusy::FloatMemRead             1407      2.13%     99.31% # attempts to use FU when none available (Count)
system.cpu1.statFuBusy::FloatMemWrite             458      0.69%    100.00% # attempts to use FU when none available (Count)
system.cpu1.statFuBusy::IprAccess                   0      0.00%    100.00% # attempts to use FU when none available (Count)
system.cpu1.statFuBusy::InstPrefetch                0      0.00%    100.00% # attempts to use FU when none available (Count)
system.cpu1.statIssuedInstType_0::No_OpClass        18302      0.41%      0.41% # Number of instructions issued per FU type, per thread (Count)
system.cpu1.statIssuedInstType_0::IntAlu      3495116     78.42%     78.83% # Number of instructions issued per FU type, per thread (Count)
system.cpu1.statIssuedInstType_0::IntMult           34      0.00%     78.83% # Number of instructions issued per FU type, per thread (Count)
system.cpu1.statIssuedInstType_0::IntDiv        38167      0.86%     79.68% # Number of instructions issued per FU type, per thread (Count)
system.cpu1.statIssuedInstType_0::FloatAdd         4308      0.10%     79.78% # Number of instructions issued per FU type, per thread (Count)
system.cpu1.statIssuedInstType_0::FloatCmp            0      0.00%     79.78% # Number of instructions issued per FU type, per thread (Count)
system.cpu1.statIssuedInstType_0::FloatCvt         1724      0.04%     79.82% # Number of instructions issued per FU type, per thread (Count)
system.cpu1.statIssuedInstType_0::FloatMult            0      0.00%     79.82% # Number of instructions issued per FU type, per thread (Count)
system.cpu1.statIssuedInstType_0::FloatMultAcc            0      0.00%     79.82% # Number of instructions issued per FU type, per thread (Count)
system.cpu1.statIssuedInstType_0::FloatDiv            0      0.00%     79.82% # Number of instructions issued per FU type, per thread (Count)
system.cpu1.statIssuedInstType_0::FloatMisc            0      0.00%     79.82% # Number of instructions issued per FU type, per thread (Count)
system.cpu1.statIssuedInstType_0::FloatSqrt            0      0.00%     79.82% # Number of instructions issued per FU type, per thread (Count)
system.cpu1.statIssuedInstType_0::SimdAdd         8181      0.18%     80.00% # Number of instructions issued per FU type, per thread (Count)
system.cpu1.statIssuedInstType_0::SimdAddAcc            0      0.00%     80.00% # Number of instructions issued per FU type, per thread (Count)
system.cpu1.statIssuedInstType_0::SimdAlu        16704      0.37%     80.38% # Number of instructions issued per FU type, per thread (Count)
system.cpu1.statIssuedInstType_0::SimdCmp            0      0.00%     80.38% # Number of instructions issued per FU type, per thread (Count)
system.cpu1.statIssuedInstType_0::SimdCvt        18242      0.41%     80.79% # Number of instructions issued per FU type, per thread (Count)
system.cpu1.statIssuedInstType_0::SimdMisc         8666      0.19%     80.98% # Number of instructions issued per FU type, per thread (Count)
system.cpu1.statIssuedInstType_0::SimdMult            0      0.00%     80.98% # Number of instructions issued per FU type, per thread (Count)
system.cpu1.statIssuedInstType_0::SimdMultAcc            0      0.00%     80.98% # Number of instructions issued per FU type, per thread (Count)
system.cpu1.statIssuedInstType_0::SimdShift         2457      0.06%     81.04% # Number of instructions issued per FU type, per thread (Count)
system.cpu1.statIssuedInstType_0::SimdShiftAcc            0      0.00%     81.04% # Number of instructions issued per FU type, per thread (Count)
system.cpu1.statIssuedInstType_0::SimdDiv            0      0.00%     81.04% # Number of instructions issued per FU type, per thread (Count)
system.cpu1.statIssuedInstType_0::SimdSqrt            0      0.00%     81.04% # Number of instructions issued per FU type, per thread (Count)
system.cpu1.statIssuedInstType_0::SimdFloatAdd            0      0.00%     81.04% # Number of instructions issued per FU type, per thread (Count)
system.cpu1.statIssuedInstType_0::SimdFloatAlu            0      0.00%     81.04% # Number of instructions issued per FU type, per thread (Count)
system.cpu1.statIssuedInstType_0::SimdFloatCmp            0      0.00%     81.04% # Number of instructions issued per FU type, per thread (Count)
system.cpu1.statIssuedInstType_0::SimdFloatCvt            0      0.00%     81.04% # Number of instructions issued per FU type, per thread (Count)
system.cpu1.statIssuedInstType_0::SimdFloatDiv            0      0.00%     81.04% # Number of instructions issued per FU type, per thread (Count)
system.cpu1.statIssuedInstType_0::SimdFloatMisc            0      0.00%     81.04% # Number of instructions issued per FU type, per thread (Count)
system.cpu1.statIssuedInstType_0::SimdFloatMult            0      0.00%     81.04% # Number of instructions issued per FU type, per thread (Count)
system.cpu1.statIssuedInstType_0::SimdFloatMultAcc            0      0.00%     81.04% # Number of instructions issued per FU type, per thread (Count)
system.cpu1.statIssuedInstType_0::SimdFloatSqrt            0      0.00%     81.04% # Number of instructions issued per FU type, per thread (Count)
system.cpu1.statIssuedInstType_0::SimdReduceAdd            0      0.00%     81.04% # Number of instructions issued per FU type, per thread (Count)
system.cpu1.statIssuedInstType_0::SimdReduceAlu            0      0.00%     81.04% # Number of instructions issued per FU type, per thread (Count)
system.cpu1.statIssuedInstType_0::SimdReduceCmp            0      0.00%     81.04% # Number of instructions issued per FU type, per thread (Count)
system.cpu1.statIssuedInstType_0::SimdFloatReduceAdd            0      0.00%     81.04% # Number of instructions issued per FU type, per thread (Count)
system.cpu1.statIssuedInstType_0::SimdFloatReduceCmp            0      0.00%     81.04% # Number of instructions issued per FU type, per thread (Count)
system.cpu1.statIssuedInstType_0::SimdAes            0      0.00%     81.04% # Number of instructions issued per FU type, per thread (Count)
system.cpu1.statIssuedInstType_0::SimdAesMix            0      0.00%     81.04% # Number of instructions issued per FU type, per thread (Count)
system.cpu1.statIssuedInstType_0::SimdSha1Hash            0      0.00%     81.04% # Number of instructions issued per FU type, per thread (Count)
system.cpu1.statIssuedInstType_0::SimdSha1Hash2            0      0.00%     81.04% # Number of instructions issued per FU type, per thread (Count)
system.cpu1.statIssuedInstType_0::SimdSha256Hash            0      0.00%     81.04% # Number of instructions issued per FU type, per thread (Count)
system.cpu1.statIssuedInstType_0::SimdSha256Hash2            0      0.00%     81.04% # Number of instructions issued per FU type, per thread (Count)
system.cpu1.statIssuedInstType_0::SimdShaSigma2            0      0.00%     81.04% # Number of instructions issued per FU type, per thread (Count)
system.cpu1.statIssuedInstType_0::SimdShaSigma3            0      0.00%     81.04% # Number of instructions issued per FU type, per thread (Count)
system.cpu1.statIssuedInstType_0::SimdPredAlu            0      0.00%     81.04% # Number of instructions issued per FU type, per thread (Count)
system.cpu1.statIssuedInstType_0::MemRead       605172     13.58%     94.61% # Number of instructions issued per FU type, per thread (Count)
system.cpu1.statIssuedInstType_0::MemWrite       188877      4.24%     98.85% # Number of instructions issued per FU type, per thread (Count)
system.cpu1.statIssuedInstType_0::FloatMemRead        33176      0.74%     99.60% # Number of instructions issued per FU type, per thread (Count)
system.cpu1.statIssuedInstType_0::FloatMemWrite        17965      0.40%    100.00% # Number of instructions issued per FU type, per thread (Count)
system.cpu1.statIssuedInstType_0::IprAccess            0      0.00%    100.00% # Number of instructions issued per FU type, per thread (Count)
system.cpu1.statIssuedInstType_0::InstPrefetch            0      0.00%    100.00% # Number of instructions issued per FU type, per thread (Count)
system.cpu1.statIssuedInstType_0::total       4457091                       # Number of instructions issued per FU type, per thread (Count)
system.cpu1.issueRate                        0.437165                       # Inst issue rate ((Count/Cycle))
system.cpu1.fuBusy                              66179                       # FU busy when requested (Count)
system.cpu1.fuBusyRate                       0.014848                       # FU busy rate (busy events/executed inst) ((Count/Count))
system.cpu1.intInstQueueReads                17812901                       # Number of integer instruction queue reads (Count)
system.cpu1.intInstQueueWrites                5697353                       # Number of integer instruction queue writes (Count)
system.cpu1.intInstQueueWakeupAccesses        4288295                       # Number of integer instruction queue wakeup accesses (Count)
system.cpu1.fpInstQueueReads                   227617                       # Number of floating instruction queue reads (Count)
system.cpu1.fpInstQueueWrites                  172629                       # Number of floating instruction queue writes (Count)
system.cpu1.fpInstQueueWakeupAccesses          108809                       # Number of floating instruction queue wakeup accesses (Count)
system.cpu1.vecInstQueueReads                       0                       # Number of vector instruction queue reads (Count)
system.cpu1.vecInstQueueWrites                      0                       # Number of vector instruction queue writes (Count)
system.cpu1.vecInstQueueWakeupAccesses              0                       # Number of vector instruction queue wakeup accesses (Count)
system.cpu1.intAluAccesses                    4390184                       # Number of integer alu accesses (Count)
system.cpu1.fpAluAccesses                      114784                       # Number of floating point alu accesses (Count)
system.cpu1.vecAluAccesses                          0                       # Number of vector alu accesses (Count)
system.cpu1.numInsts                          4426624                       # Number of executed instructions (Count)
system.cpu1.numLoadInsts                       630703                       # Number of load instructions executed (Count)
system.cpu1.numSquashedInsts                    30467                       # Number of squashed instructions skipped in execute (Count)
system.cpu1.numSwp                                  0                       # Number of swp insts executed (Count)
system.cpu1.numNop                                  0                       # Number of nop insts executed (Count)
system.cpu1.numRefs                            835546                       # Number of memory reference insts executed (Count)
system.cpu1.numBranches                        399638                       # Number of branches executed (Count)
[...]
system.ruby.network.ext_out_link_utilization      4192266                       (Unspecified)
system.ruby.network.flit_network_latency |105328256500                       |208415254500                       | 28811768000                       (Unspecified)
system.ruby.network.flit_queueing_latency |  2133965500                       |  1944491500                       |   147930500                       (Unspecified)
system.ruby.network.flits_injected       |      995131     23.74%     23.74% |     2901280     69.21%     92.94% |      295862      7.06%    100.00% (Unspecified)
system.ruby.network.flits_injected::total      4192273                       (Unspecified)
system.ruby.network.flits_received       |      995130     23.74%     23.74% |     2901275     69.21%     92.94% |      295861      7.06%    100.00% (Unspecified)
system.ruby.network.flits_received::total      4192266                       (Unspecified)
system.ruby.network.int_link_utilization     12718580                       (Unspecified)
system.ruby.network.packet_network_latency | 78877069000                       | 68902170000                       | 28811768000                       (Unspecified)
system.ruby.network.packet_queueing_latency |  1748411500                       |   517473500                       |   147930500                       (Unspecified)
system.ruby.network.packets_injected     |      810479     42.28%     42.28% |      810476     42.28%     84.56% |      295862     15.44%    100.00% (Unspecified)
system.ruby.network.packets_injected::total      1916817                       (Unspecified)
system.ruby.network.packets_received     |      810478     42.28%     42.28% |      810475     42.28%     84.56% |      295861     15.44%    100.00% (Unspecified)
system.ruby.network.packets_received::total      1916814                       (Unspecified)
system.ruby.network.routers00.Var_1                 0                       (Unspecified)
system.ruby.network.routers00.Var_2                 0                       (Unspecified)
system.ruby.network.routers00.Var_3                 0                       (Unspecified)
system.ruby.network.routers00.all_counts            0                       (Unspecified)
system.ruby.network.routers00.buffer_reads       749246                       (Unspecified)
system.ruby.network.routers00.buffer_writes       749246                       (Unspecified)
system.ruby.network.routers00.crossbar_activity       749246                       (Unspecified)
system.ruby.network.routers00.detour_counts        53434                       (Unspecified)
system.ruby.network.routers00.regular_var            0                       (Unspecified)
system.ruby.network.routers00.risk_counts            0                       (Unspecified)
system.ruby.network.routers00.sw_input_arbiter_activity       754826                       (Unspecified)
system.ruby.network.routers00.sw_output_arbiter_activity       749246                       (Unspecified)
system.ruby.network.routers01.Var_1                 0                       (Unspecified)
system.ruby.network.routers01.Var_2                 0                       (Unspecified)
system.ruby.network.routers01.Var_3                 0                       (Unspecified)
system.ruby.network.routers01.all_counts            0                       (Unspecified)
system.ruby.network.routers01.buffer_reads      1078652                       (Unspecified)
system.ruby.network.routers01.buffer_writes      1078652                       (Unspecified)
system.ruby.network.routers01.crossbar_activity      1078652                       (Unspecified)
system.ruby.network.routers01.detour_counts        53558                       (Unspecified)
system.ruby.network.routers01.regular_var            0                       (Unspecified)
system.ruby.network.routers01.risk_counts            0                       (Unspecified)
system.ruby.network.routers01.sw_input_arbiter_activity      1091310                       (Unspecified)
system.ruby.network.routers01.sw_output_arbiter_activity      1078652                       (Unspecified)
system.ruby.network.routers02.Var_1                 0                       (Unspecified)
system.ruby.network.routers02.Var_2                 0                       (Unspecified)
system.ruby.network.routers02.Var_3                 0                       (Unspecified)
system.ruby.network.routers02.all_counts            0                       (Unspecified)
system.ruby.network.routers02.buffer_reads      1081385                       (Unspecified)
system.ruby.network.routers02.buffer_writes      1081385                       (Unspecified)
system.ruby.network.routers02.crossbar_activity      1081385                       (Unspecified)
system.ruby.network.routers02.detour_counts        53464                       (Unspecified)
system.ruby.network.routers02.regular_var            0                       (Unspecified)
system.ruby.network.routers02.risk_counts            0                       (Unspecified)
system.ruby.network.routers02.sw_input_arbiter_activity      1093906                       (Unspecified)
system.ruby.network.routers02.sw_output_arbiter_activity      1081385                       (Unspecified)
system.ruby.network.routers03.Var_1                 0                       (Unspecified)
system.ruby.network.routers03.Var_2                 0                       (Unspecified)
system.ruby.network.routers03.Var_3                 0                       (Unspecified)
system.ruby.network.routers03.all_counts            0                       (Unspecified)
system.ruby.network.routers03.buffer_reads       741845                       (Unspecified)
system.ruby.network.routers03.buffer_writes       741845                       (Unspecified)
system.ruby.network.routers03.crossbar_activity       741845                       (Unspecified)
system.ruby.network.routers03.detour_counts        53564                       (Unspecified)
system.ruby.network.routers03.regular_var            0                       (Unspecified)
system.ruby.network.routers03.risk_counts            0                       (Unspecified)
system.ruby.network.routers03.sw_input_arbiter_activity       747342                       (Unspecified)
system.ruby.network.routers03.sw_output_arbiter_activity       741845                       (Unspecified)
system.ruby.network.routers04.Var_1                 0                       (Unspecified)
system.ruby.network.routers04.Var_2                 0                       (Unspecified)
system.ruby.network.routers04.Var_3                 0                       (Unspecified)
system.ruby.network.routers04.all_counts            0                       (Unspecified)
system.ruby.network.routers04.buffer_reads      1045230                       (Unspecified)
system.ruby.network.routers04.buffer_writes      1045230                       (Unspecified)
system.ruby.network.routers04.crossbar_activity      1045230                       (Unspecified)
system.ruby.network.routers04.detour_counts        53554                       (Unspecified)
system.ruby.network.routers04.regular_var            0                       (Unspecified)
system.ruby.network.routers04.risk_counts            0                       (Unspecified)
system.ruby.network.routers04.sw_input_arbiter_activity      1056443                       (Unspecified)
system.ruby.network.routers04.sw_output_arbiter_activity      1045230                       (Unspecified)
system.ruby.network.routers05.Var_1                 0                       (Unspecified)
system.ruby.network.routers05.Var_2                 0                       (Unspecified)
system.ruby.network.routers05.Var_3                 0                       (Unspecified)
system.ruby.network.routers05.all_counts            0                       (Unspecified)
system.ruby.network.routers05.buffer_reads      1371745                       (Unspecified)
system.ruby.network.routers05.buffer_writes      1371745                       (Unspecified)
system.ruby.network.routers05.crossbar_activity      1371745                       (Unspecified)
system.ruby.network.routers05.detour_counts        53631                       (Unspecified)
system.ruby.network.routers05.regular_var            0                       (Unspecified)
system.ruby.network.routers05.risk_counts            0                       (Unspecified)
system.ruby.network.routers05.sw_input_arbiter_activity      1389388                       (Unspecified)
system.ruby.network.routers05.sw_output_arbiter_activity      1371745                       (Unspecified)
system.ruby.network.routers06.Var_1                 0                       (Unspecified)
system.ruby.network.routers06.Var_2                 0                       (Unspecified)
system.ruby.network.routers06.Var_3                 0                       (Unspecified)
system.ruby.network.routers06.all_counts            0                       (Unspecified)
system.ruby.network.routers06.buffer_reads      1373466                       (Unspecified)
system.ruby.network.routers06.buffer_writes      1373466                       (Unspecified)
system.ruby.network.routers06.crossbar_activity      1373466                       (Unspecified)
system.ruby.network.routers06.detour_counts        53523                       (Unspecified)
system.ruby.network.routers06.regular_var            0                       (Unspecified)
system.ruby.network.routers06.risk_counts            0                       (Unspecified)
system.ruby.network.routers06.sw_input_arbiter_activity      1392209                       (Unspecified)
system.ruby.network.routers06.sw_output_arbiter_activity      1373466                       (Unspecified)
system.ruby.network.routers07.Var_1                 0                       (Unspecified)
system.ruby.network.routers07.Var_2                 0                       (Unspecified)
system.ruby.network.routers07.Var_3                 0                       (Unspecified)
system.ruby.network.routers07.all_counts            0                       (Unspecified)
system.ruby.network.routers07.buffer_reads      1041332                       (Unspecified)
system.ruby.network.routers07.buffer_writes      1041332                       (Unspecified)
system.ruby.network.routers07.crossbar_activity      1041332                       (Unspecified)
system.ruby.network.routers07.detour_counts        53529                       (Unspecified)
system.ruby.network.routers07.regular_var            0                       (Unspecified)
system.ruby.network.routers07.risk_counts            0                       (Unspecified)
system.ruby.network.routers07.sw_input_arbiter_activity      1052805                       (Unspecified)
system.ruby.network.routers07.sw_output_arbiter_activity      1041332                       (Unspecified)
system.ruby.network.routers08.Var_1                 0                       (Unspecified)
system.ruby.network.routers08.Var_2                 0                       (Unspecified)
system.ruby.network.routers08.Var_3                 0                       (Unspecified)
system.ruby.network.routers08.all_counts            0                       (Unspecified)
system.ruby.network.routers08.buffer_reads      1042679                       (Unspecified)
system.ruby.network.routers08.buffer_writes      1042679                       (Unspecified)
system.ruby.network.routers08.crossbar_activity      1042679                       (Unspecified)
system.ruby.network.routers08.detour_counts        53616                       (Unspecified)
system.ruby.network.routers08.regular_var            0                       (Unspecified)
system.ruby.network.routers08.risk_counts            0                       (Unspecified)
system.ruby.network.routers08.sw_input_arbiter_activity      1054271                       (Unspecified)
system.ruby.network.routers08.sw_output_arbiter_activity      1042679                       (Unspecified)
system.ruby.network.routers09.Var_1                 0                       (Unspecified)
system.ruby.network.routers09.Var_2                 0                       (Unspecified)
system.ruby.network.routers09.Var_3                 0                       (Unspecified)
system.ruby.network.routers09.all_counts            0                       (Unspecified)
system.ruby.network.routers09.buffer_reads      1375116                       (Unspecified)
system.ruby.network.routers09.buffer_writes      1375116                       (Unspecified)
system.ruby.network.routers09.crossbar_activity      1375116                       (Unspecified)
system.ruby.network.routers09.detour_counts        53373                       (Unspecified)
system.ruby.network.routers09.regular_var            0                       (Unspecified)
system.ruby.network.routers09.risk_counts            0                       (Unspecified)
system.ruby.network.routers09.sw_input_arbiter_activity      1393377                       (Unspecified)
system.ruby.network.routers09.sw_output_arbiter_activity      1375116                       (Unspecified)
system.ruby.network.routers10.Var_1                 0                       (Unspecified)
system.ruby.network.routers10.Var_2                 0                       (Unspecified)
system.ruby.network.routers10.Var_3                 0                       (Unspecified)
system.ruby.network.routers10.all_counts            0                       (Unspecified)
system.ruby.network.routers10.buffer_reads      1371160                       (Unspecified)
system.ruby.network.routers10.buffer_writes      1371160                       (Unspecified)
system.ruby.network.routers10.crossbar_activity      1371160                       (Unspecified)
system.ruby.network.routers10.detour_counts        53521                       (Unspecified)
system.ruby.network.routers10.regular_var            0                       (Unspecified)
system.ruby.network.routers10.risk_counts            0                       (Unspecified)
system.ruby.network.routers10.sw_input_arbiter_activity      1389172                       (Unspecified)
system.ruby.network.routers10.sw_output_arbiter_activity      1371160                       (Unspecified)
system.ruby.network.routers11.Var_1                 0                       (Unspecified)
system.ruby.network.routers11.Var_2                 0                       (Unspecified)
system.ruby.network.routers11.Var_3                 0                       (Unspecified)
system.ruby.network.routers11.all_counts            0                       (Unspecified)
system.ruby.network.routers11.buffer_reads      1033433                       (Unspecified)
system.ruby.network.routers11.buffer_writes      1033433                       (Unspecified)
system.ruby.network.routers11.crossbar_activity      1033433                       (Unspecified)
system.ruby.network.routers11.detour_counts        53678                       (Unspecified)
system.ruby.network.routers11.regular_var            0                       (Unspecified)
system.ruby.network.routers11.risk_counts            0                       (Unspecified)
system.ruby.network.routers11.sw_input_arbiter_activity      1044919                       (Unspecified)
system.ruby.network.routers11.sw_output_arbiter_activity      1033433                       (Unspecified)
system.ruby.network.routers12.Var_1                 0                       (Unspecified)
system.ruby.network.routers12.Var_2                 0                       (Unspecified)
system.ruby.network.routers12.Var_3                 0                       (Unspecified)
system.ruby.network.routers12.all_counts            0                       (Unspecified)
system.ruby.network.routers12.buffer_reads       738376                       (Unspecified)
system.ruby.network.routers12.buffer_writes       738376                       (Unspecified)
system.ruby.network.routers12.crossbar_activity       738376                       (Unspecified)
system.ruby.network.routers12.detour_counts        53528                       (Unspecified)
system.ruby.network.routers12.regular_var            0                       (Unspecified)
system.ruby.network.routers12.risk_counts            0                       (Unspecified)
system.ruby.network.routers12.sw_input_arbiter_activity       744040                       (Unspecified)
system.ruby.network.routers12.sw_output_arbiter_activity       738376                       (Unspecified)
system.ruby.network.routers13.Var_1                 0                       (Unspecified)
system.ruby.network.routers13.Var_2                 0                       (Unspecified)
system.ruby.network.routers13.Var_3                 0                       (Unspecified)
system.ruby.network.routers13.all_counts            0                       (Unspecified)
system.ruby.network.routers13.buffer_reads      1068420                       (Unspecified)
system.ruby.network.routers13.buffer_writes      1068420                       (Unspecified)
system.ruby.network.routers13.crossbar_activity      1068420                       (Unspecified)
system.ruby.network.routers13.detour_counts        53502                       (Unspecified)
system.ruby.network.routers13.regular_var            0                       (Unspecified)
system.ruby.network.routers13.risk_counts            0                       (Unspecified)
system.ruby.network.routers13.sw_input_arbiter_activity      1080471                       (Unspecified)
system.ruby.network.routers13.sw_output_arbiter_activity      1068420                       (Unspecified)
system.ruby.network.routers14.Var_1                 0                       (Unspecified)
system.ruby.network.routers14.Var_2                 0                       (Unspecified)
system.ruby.network.routers14.Var_3                 0                       (Unspecified)
system.ruby.network.routers14.all_counts            0                       (Unspecified)
system.ruby.network.routers14.buffer_reads      1063754                       (Unspecified)
system.ruby.network.routers14.buffer_writes      1063754                       (Unspecified)
system.ruby.network.routers14.crossbar_activity      1063754                       (Unspecified)
system.ruby.network.routers14.detour_counts        53651                       (Unspecified)
system.ruby.network.routers14.regular_var            0                       (Unspecified)
system.ruby.network.routers14.risk_counts            0                       (Unspecified)
system.ruby.network.routers14.sw_input_arbiter_activity      1075629                       (Unspecified)
system.ruby.network.routers14.sw_output_arbiter_activity      1063754                       (Unspecified)
system.ruby.network.routers15.Var_1                 0                       (Unspecified)
system.ruby.network.routers15.Var_2                 0                       (Unspecified)
system.ruby.network.routers15.Var_3                 0                       (Unspecified)
system.ruby.network.routers15.all_counts            0                       (Unspecified)
system.ruby.network.routers15.buffer_reads       735007                       (Unspecified)
system.ruby.network.routers15.buffer_writes       735007                       (Unspecified)
system.ruby.network.routers15.crossbar_activity       735007                       (Unspecified)
system.ruby.network.routers15.detour_counts        53699                       (Unspecified)
system.ruby.network.routers15.regular_var            0                       (Unspecified)
system.ruby.network.routers15.risk_counts            0                       (Unspecified)
system.ruby.network.routers15.sw_input_arbiter_activity       740369                       (Unspecified)
system.ruby.network.routers15.sw_output_arbiter_activity       735007                       (Unspecified)

---------- End Simulation Statistics   ----------
