
---------- Begin Simulation Statistics ----------
simSeconds                                   0.004956                       # Number of seconds simulated (Second)
simTicks                                   4955873000                       # Number of ticks simulated (Tick)
finalTick                                  4955873000                       # Number of ticks from beginning of simulation (restored from checkpoints and never reset) (Tick)
simFreq                                  1000000000000                       # The number of ticks per simulated second ((Tick/Second))
hostSeconds                                    800.88                       # Real time elapsed on the host (Second)
hostTickRate                                  6188024                       # The number of ticks simulated per host second (ticks/s) ((Tick/Second))
hostMemory                                   11459500                       # Number of bytes of host memory used (Byte)
simInsts                                     34859824                       # Number of instructions simulated (Count)
simOps                                       60293328                       # Number of ops (including micro ops) simulated (Count)
hostInstRate                                    43527                       # Simulator instruction rate (inst/s) ((Count/Second))
hostOpRate                                      75284                       # Simulator op (including micro ops) rate (op/s) ((Count/Second))
system.clk_domain.clock                          1000                       # Clock period in ticks (Tick)
system.cpu0.numCycles                         9804522                       # Number of cpu cycles simulated (Cycle)
system.cpu0.numWorkItemsStarted                     0                       # Number of work items this cpu started (Count)
system.cpu0.numWorkItemsCompleted                   0                       # Number of work items this cpu completed (Count)
system.cpu0.instsAdded                        4811735                       # Number of instructions added to the IQ (excludes non-spec) (Count)
system.cpu0.nonSpecInstsAdded                    1093                       # Number of non-speculative instructions added to the IQ (Count)
system.cpu0.instsIssued                       4450637                       # Number of instructions issued (Count)
system.cpu0.squashedInstsIssued                  2838                       # Number of squashed instructions issued (Count)
system.cpu0.squashedInstsExamined             1044495                       # Number of squashed instructions iterated over during squash; mainly for profiling (Count)
system.cpu0.squashedOperandsExamined          2253517                       # Number of squashed operands that are examined and possibly removed from graph (Count)
system.cpu0.squashedNonSpecRemoved                240                       # Number of squashed non-spec instructions that were removed (Count)
system.cpu0.numIssuedDist::samples            8669418                       # Number of insts issued each cycle (Count)
system.cpu0.numIssuedDist::mean              0.513372                       # Number of insts issued each cycle (Count)
system.cpu0.numIssuedDist::stdev             1.448643                       # Number of insts issued each cycle (Count)
system.cpu0.numIssuedDist::underflows               0      0.00%      0.00% # Number of insts issued each cycle (Count)
system.cpu0.numIssuedDist::0                  7422236     85.61%     85.61% # Number of insts issued each cycle (Count)
system.cpu0.numIssuedDist::1                   198916      2.29%     87.91% # Number of insts issued each cycle (Count)
system.cpu0.numIssuedDist::2                   229134      2.64%     90.55% # Number of insts issued each cycle (Count)
system.cpu0.numIssuedDist::3                   242299      2.79%     93.35% # Number of insts issued each cycle (Count)
system.cpu0.numIssuedDist::4                   194882      2.25%     95.59% # Number of insts issued each cycle (Count)
system.cpu0.numIssuedDist::5                   148958      1.72%     97.31% # Number of insts issued each cycle (Count)
system.cpu0.numIssuedDist::6                   127009      1.47%     98.78% # Number of insts issued each cycle (Count)
system.cpu0.numIssuedDist::7                    67688      0.78%     99.56% # Number of insts issued each cycle (Count)
system.cpu0.numIssuedDist::8                    38296      0.44%    100.00% # Number of insts issued each cycle (Count)
system.cpu0.numIssuedDist::overflows                0      0.00%    100.00% # Number of insts issued each cycle (Count)
system.cpu0.numIssuedDist::min_value                0                       # Number of insts issued each cycle (Count)
system.cpu0.numIssuedDist::max_value                8                       # Number of insts issued each cycle (Count)
system.cpu0.numIssuedDist::total              8669418                       # Number of insts issued each cycle (Count)
system.cpu0.statFuBusy::No_OpClass                  0      0.00%      0.00% # attempts to use FU when none available (Count)
system.cpu0.statFuBusy::IntAlu                  41829     65.61%     65.61% # attempts to use FU when none available (Count)
system.cpu0.statFuBusy::IntMult                     0      0.00%     65.61% # attempts to use FU when none available (Count)
system.cpu0.statFuBusy::IntDiv                      0      0.00%     65.61% # attempts to use FU when none available (Count)
system.cpu0.statFuBusy::FloatAdd                    0      0.00%     65.61% # attempts to use FU when none available (Count)
system.cpu0.statFuBusy::FloatCmp                    0      0.00%     65.61% # attempts to use FU when none available (Count)
system.cpu0.statFuBusy::FloatCvt                    2      0.00%     65.61% # attempts to use FU when none available (Count)
system.cpu0.statFuBusy::FloatMult                   0      0.00%     65.61% # attempts to use FU when none available (Count)
system.cpu0.statFuBusy::FloatMultAcc                0      0.00%     65.61% # attempts to use FU when none available (Count)
system.cpu0.statFuBusy::FloatDiv                    0      0.00%     65.61% # attempts to use FU when none available (Count)
system.cpu0.statFuBusy::FloatMisc                   0      0.00%     65.61% # attempts to use FU when none available (Count)
system.cpu0.statFuBusy::FloatSqrt                   0      0.00%     65.61% # attempts to use FU when none available (Count)
system.cpu0.statFuBusy::SimdAdd                     0      0.00%     65.61% # attempts to use FU when none available (Count)
system.cpu0.statFuBusy::SimdAddAcc                  0      0.00%     65.61% # attempts to use FU when none available (Count)
system.cpu0.statFuBusy::SimdAlu                   123      0.19%     65.81% # attempts to use FU when none available (Count)
system.cpu0.statFuBusy::SimdCmp                     0      0.00%     65.81% # attempts to use FU when none available (Count)
system.cpu0.statFuBusy::SimdCvt                   121      0.19%     66.00% # attempts to use FU when none available (Count)
system.cpu0.statFuBusy::SimdMisc                    0      0.00%     66.00% # attempts to use FU when none available (Count)
system.cpu0.statFuBusy::SimdMult                    0      0.00%     66.00% # attempts to use FU when none available (Count)
system.cpu0.statFuBusy::SimdMultAcc                 0      0.00%     66.00% # attempts to use FU when none available (Count)
system.cpu0.statFuBusy::SimdShift                 134      0.21%     66.21% # attempts to use FU when none available (Count)
system.cpu0.statFuBusy::SimdShiftAcc                0      0.00%     66.21% # attempts to use FU when none available (Count)
system.cpu0.statFuBusy::SimdDiv                     0      0.00%     66.21% # attempts to use FU when none available (Count)
system.cpu0.statFuBusy::SimdSqrt                    0      0.00%     66.21% # attempts to use FU when none available (Count)
system.cpu0.statFuBusy::SimdFloatAdd                0      0.00%     66.21% # attempts to use FU when none available (Count)
system.cpu0.statFuBusy::SimdFloatAlu                0      0.00%     66.21% # attempts to use FU when none available (Count)
system.cpu0.statFuBusy::SimdFloatCmp                0      0.00%     66.21% # attempts to use FU when none available (Count)
system.cpu0.statFuBusy::SimdFloatCvt                0      0.00%     66.21% # attempts to use FU when none available (Count)
system.cpu0.statFuBusy::SimdFloatDiv                0      0.00%     66.21% # attempts to use FU when none available (Count)
system.cpu0.statFuBusy::SimdFloatMisc               0      0.00%     66.21% # attempts to use FU when none available (Count)
system.cpu0.statFuBusy::SimdFloatMult               0      0.00%     66.21% # attempts to use FU when none available (Count)
system.cpu0.statFuBusy::SimdFloatMultAcc            0      0.00%     66.21% # attempts to use FU when none available (Count)
system.cpu0.statFuBusy::SimdFloatSqrt               0      0.00%     66.21% # attempts to use FU when none available (Count)
system.cpu0.statFuBusy::SimdReduceAdd               0      0.00%     66.21% # attempts to use FU when none available (Count)
system.cpu0.statFuBusy::SimdReduceAlu               0      0.00%     66.21% # attempts to use FU when none available (Count)
system.cpu0.statFuBusy::SimdReduceCmp               0      0.00%     66.21% # attempts to use FU when none available (Count)
system.cpu0.statFuBusy::SimdFloatReduceAdd            0      0.00%     66.21% # attempts to use FU when none available (Count)
system.cpu0.statFuBusy::SimdFloatReduceCmp            0      0.00%     66.21% # attempts to use FU when none available (Count)
system.cpu0.statFuBusy::SimdAes                     0      0.00%     66.21% # attempts to use FU when none available (Count)
system.cpu0.statFuBusy::SimdAesMix                  0      0.00%     66.21% # attempts to use FU when none available (Count)
system.cpu0.statFuBusy::SimdSha1Hash                0      0.00%     66.21% # attempts to use FU when none available (Count)
system.cpu0.statFuBusy::SimdSha1Hash2               0      0.00%     66.21% # attempts to use FU when none available (Count)
system.cpu0.statFuBusy::SimdSha256Hash              0      0.00%     66.21% # attempts to use FU when none available (Count)
system.cpu0.statFuBusy::SimdSha256Hash2             0      0.00%     66.21% # attempts to use FU when none available (Count)
system.cpu0.statFuBusy::SimdShaSigma2               0      0.00%     66.21% # attempts to use FU when none available (Count)
system.cpu0.statFuBusy::SimdShaSigma3               0      0.00%     66.21% # attempts to use FU when none available (Count)
system.cpu0.statFuBusy::SimdPredAlu                 0      0.00%     66.21% # attempts to use FU when none available (Count)
system.cpu0.statFuBusy::MemRead                 11988     18.80%     85.01% # attempts to use FU when none available (Count)
system.cpu0.statFuBusy::MemWrite                 7706     12.09%     97.10% # attempts to use FU when none available (Count)
system.cpu0.statFuBusy::FloatMemRead             1405      2.20%     99.30% # attempts to use FU when none available (Count)
system.cpu0.statFuBusy::FloatMemWrite             446      0.70%    100.00% # attempts to use FU when none available (Count)
system.cpu0.statFuBusy::IprAccess                   0      0.00%    100.00% # attempts to use FU when none available (Count)
system.cpu0.statFuBusy::InstPrefetch                0      0.00%    100.00% # attempts to use FU when none available (Count)
system.cpu0.statIssuedInstType_0::No_OpClass        18042      0.41%      0.41% # Number of instructions issued per FU type, per thread (Count)
system.cpu0.statIssuedInstType_0::IntAlu      3490161     78.42%     78.82% # Number of instructions issued per FU type, per thread (Count)
system.cpu0.statIssuedInstType_0::IntMult           35      0.00%     78.83% # Number of instructions issued per FU type, per thread (Count)
system.cpu0.statIssuedInstType_0::IntDiv        38179      0.86%     79.68% # Number of instructions issued per FU type, per thread (Count)
system.cpu0.statIssuedInstType_0::FloatAdd         4323      0.10%     79.78% # Number of instructions issued per FU type, per thread (Count)
system.cpu0.statIssuedInstType_0::FloatCmp            0      0.00%     79.78% # Number of instructions issued per FU type, per thread (Count)
system.cpu0.statIssuedInstType_0::FloatCvt         1674      0.04%     79.82% # Number of instructions issued per FU type, per thread (Count)
system.cpu0.statIssuedInstType_0::FloatMult            0      0.00%     79.82% # Number of instructions issued per FU type, per thread (Count)
system.cpu0.statIssuedInstType_0::FloatMultAcc            0      0.00%     79.82% # Number of instructions issued per FU type, per thread (Count)
system.cpu0.statIssuedInstType_0::FloatDiv            0      0.00%     79.82% # Number of instructions issued per FU type, per thread (Count)
system.cpu0.statIssuedInstType_0::FloatMisc            0      0.00%     79.82% # Number of instructions issued per FU type, per thread (Count)
system.cpu0.statIssuedInstType_0::FloatSqrt            0      0.00%     79.82% # Number of instructions issued per FU type, per thread (Count)
system.cpu0.statIssuedInstType_0::SimdAdd         8189      0.18%     80.00% # Number of instructions issued per FU type, per thread (Count)
system.cpu0.statIssuedInstType_0::SimdAddAcc            0      0.00%     80.00% # Number of instructions issued per FU type, per thread (Count)
system.cpu0.statIssuedInstType_0::SimdAlu        16704      0.38%     80.38% # Number of instructions issued per FU type, per thread (Count)
system.cpu0.statIssuedInstType_0::SimdCmp            0      0.00%     80.38% # Number of instructions issued per FU type, per thread (Count)
system.cpu0.statIssuedInstType_0::SimdCvt        18234      0.41%     80.79% # Number of instructions issued per FU type, per thread (Count)
system.cpu0.statIssuedInstType_0::SimdMisc         8676      0.19%     80.98% # Number of instructions issued per FU type, per thread (Count)
system.cpu0.statIssuedInstType_0::SimdMult            0      0.00%     80.98% # Number of instructions issued per FU type, per thread (Count)
system.cpu0.statIssuedInstType_0::SimdMultAcc            0      0.00%     80.98% # Number of instructions issued per FU type, per thread (Count)
system.cpu0.statIssuedInstType_0::SimdShift         2451      0.06%     81.04% # Number of instructions issued per FU type, per thread (Count)
system.cpu0.statIssuedInstType_0::SimdShiftAcc            0      0.00%     81.04% # Number of instructions issued per FU type, per thread (Count)
system.cpu0.statIssuedInstType_0::SimdDiv            0      0.00%     81.04% # Number of instructions issued per FU type, per thread (Count)
system.cpu0.statIssuedInstType_0::SimdSqrt            0      0.00%     81.04% # Number of instructions issued per FU type, per thread (Count)
system.cpu0.statIssuedInstType_0::SimdFloatAdd            0      0.00%     81.04% # Number of instructions issued per FU type, per thread (Count)
system.cpu0.statIssuedInstType_0::SimdFloatAlu            0      0.00%     81.04% # Number of instructions issued per FU type, per thread (Count)
system.cpu0.statIssuedInstType_0::SimdFloatCmp            0      0.00%     81.04% # Number of instructions issued per FU type, per thread (Count)
system.cpu0.statIssuedInstType_0::SimdFloatCvt            0      0.00%     81.04% # Number of instructions issued per FU type, per thread (Count)
system.cpu0.statIssuedInstType_0::SimdFloatDiv            0      0.00%     81.04% # Number of instructions issued per FU type, per thread (Count)
system.cpu0.statIssuedInstType_0::SimdFloatMisc            0      0.00%     81.04% # Number of instructions issued per FU type, per thread (Count)
system.cpu0.statIssuedInstType_0::SimdFloatMult            0      0.00%     81.04% # Number of instructions issued per FU type, per thread (Count)
system.cpu0.statIssuedInstType_0::SimdFloatMultAcc            0      0.00%     81.04% # Number of instructions issued per FU type, per thread (Count)
system.cpu0.statIssuedInstType_0::SimdFloatSqrt            0      0.00%     81.04% # Number of instructions issued per FU type, per thread (Count)
system.cpu0.statIssuedInstType_0::SimdReduceAdd            0      0.00%     81.04% # Number of instructions issued per FU type, per thread (Count)
system.cpu0.statIssuedInstType_0::SimdReduceAlu            0      0.00%     81.04% # Number of instructions issued per FU type, per thread (Count)
system.cpu0.statIssuedInstType_0::SimdReduceCmp            0      0.00%     81.04% # Number of instructions issued per FU type, per thread (Count)
system.cpu0.statIssuedInstType_0::SimdFloatReduceAdd            0      0.00%     81.04% # Number of instructions issued per FU type, per thread (Count)
system.cpu0.statIssuedInstType_0::SimdFloatReduceCmp            0      0.00%     81.04% # Number of instructions issued per FU type, per thread (Count)
system.cpu0.statIssuedInstType_0::SimdAes            0      0.00%     81.04% # Number of instructions issued per FU type, per thread (Count)
system.cpu0.statIssuedInstType_0::SimdAesMix            0      0.00%     81.04% # Number of instructions issued per FU type, per thread (Count)
system.cpu0.statIssuedInstType_0::SimdSha1Hash            0      0.00%     81.04% # Number of instructions issued per FU type, per thread (Count)
system.cpu0.statIssuedInstType_0::SimdSha1Hash2            0      0.00%     81.04% # Number of instructions issued per FU type, per thread (Count)
system.cpu0.statIssuedInstType_0::SimdSha256Hash            0      0.00%     81.04% # Number of instructions issued per FU type, per thread (Count)
system.cpu0.statIssuedInstType_0::SimdSha256Hash2            0      0.00%     81.04% # Number of instructions issued per FU type, per thread (Count)
system.cpu0.statIssuedInstType_0::SimdShaSigma2            0      0.00%     81.04% # Number of instructions issued per FU type, per thread (Count)
system.cpu0.statIssuedInstType_0::SimdShaSigma3            0      0.00%     81.04% # Number of instructions issued per FU type, per thread (Count)
system.cpu0.statIssuedInstType_0::SimdPredAlu            0      0.00%     81.04% # Number of instructions issued per FU type, per thread (Count)
system.cpu0.statIssuedInstType_0::MemRead       603953     13.57%     94.61% # Number of instructions issued per FU type, per thread (Count)
system.cpu0.statIssuedInstType_0::MemWrite       188918      4.24%     98.85% # Number of instructions issued per FU type, per thread (Count)
system.cpu0.statIssuedInstType_0::FloatMemRead        33153      0.74%     99.60% # Number of instructions issued per FU type, per thread (Count)
system.cpu0.statIssuedInstType_0::FloatMemWrite        17945      0.40%    100.00% # Number of instructions issued per FU type, per thread (Count)
system.cpu0.statIssuedInstType_0::IprAccess            0      0.00%    100.00% # Number of instructions issued per FU type, per thread (Count)
system.cpu0.statIssuedInstType_0::InstPrefetch            0      0.00%    100.00% # Number of instructions issued per FU type, per thread (Count)
system.cpu0.statIssuedInstType_0::total       4450637                       # Number of instructions issued per FU type, per thread (Count)
system.cpu0.issueRate                        0.453937                       # Inst issue rate ((Count/Cycle))
system.cpu0.fuBusy                              63754                       # FU busy when requested (Count)
system.cpu0.fuBusyRate                       0.014325                       # FU busy rate (busy events/executed inst) ((Count/Count))
system.cpu0.intInstQueueReads                17409824                       # Number of integer instruction queue reads (Count)
system.cpu0.intInstQueueWrites                5684881                       # Number of integer instruction queue writes (Count)
system.cpu0.intInstQueueWakeupAccesses        4282228                       # Number of integer instruction queue wakeup accesses (Count)
system.cpu0.fpInstQueueReads                   227460                       # Number of floating instruction queue reads (Count)
system.cpu0.fpInstQueueWrites                  172581                       # Number of floating instruction queue writes (Count)
system.cpu0.fpInstQueueWakeupAccesses          108757                       # Number of floating instruction queue wakeup accesses (Count)
system.cpu0.vecInstQueueReads                       0                       # Number of vector instruction queue reads (Count)
system.cpu0.vecInstQueueWrites                      0                       # Number of vector instruction queue writes (Count)
system.cpu0.vecInstQueueWakeupAccesses              0                       # Number of vector instruction queue wakeup accesses (Count)
system.cpu0.intAluAccesses                    4381651                       # Number of integer alu accesses (Count)
system.cpu0.fpAluAccesses                      114698                       # Number of floating point alu accesses (Count)
system.cpu0.vecAluAccesses                          0                       # Number of vector alu accesses (Count)
system.cpu0.numInsts                          4420311                       # Number of executed instructions (Count)
system.cpu0.numLoadInsts                       629440                       # Number of load instructions executed (Count)
system.cpu0.numSquashedInsts                    30326                       # Number of squashed instructions skipped in execute (Count)
system.cpu0.numSwp                                  0                       # Number of swp insts executed (Count)
system.cpu0.numNop                                  0                       # Number of nop insts executed (Count)
system.cpu0.numRefs                            834311                       # Number of memory reference insts executed (Count)
system.cpu0.numBranches                        396324                       # Number of branches executed (Count)
system.cpu0.numStoreInsts                      204871                       # Number of stores executed (Count)
system.cpu0.numRate                          0.450844                       # Inst execution rate ((Count/Cycle))
system.cpu0.timesIdled                           2363                       # Number of times that the entire CPU went into an idle state and unscheduled itself (Count)
system.cpu0.idleCycles                        1135104                       # Total number of cycles that the CPU has spent unscheduled due to idling (Cycle)
system.cpu0.committedInsts                    2178739                       # Number of Instructions Simulated (Count)
system.cpu0.committedOps                      3768333                       # Number of Ops (including micro ops) Simulated (Count)
system.cpu0.cpi                              4.500090                       # CPI: Cycles Per Instruction ((Cycle/Count))
system.cpu0.totalCpi                         4.500090                       # CPI: Total CPI of All Threads ((Cycle/Count))
system.cpu0.ipc                              0.222218                       # IPC: Instructions Per Cycle ((Count/Cycle))
system.cpu0.totalIpc                         0.222218                       # IPC: Total IPC of All Threads ((Count/Cycle))
system.cpu0.intRegfileReads                   6016976                       # Number of integer regfile reads (Count)
system.cpu0.intRegfileWrites                  3440262                       # Number of integer regfile writes (Count)
system.cpu0.fpRegfileReads                     147113                       # Number of floating regfile reads (Count)
system.cpu0.fpRegfileWrites                     81849                       # Number of floating regfile writes (Count)
system.cpu0.ccRegfileReads                    2511632                       # number of cc regfile reads (Count)
system.cpu0.ccRegfileWrites                   2051969                       # number of cc regfile writes (Count)
system.cpu0.miscRegfileReads                  1669913                       # number of misc regfile reads (Count)
system.cpu0.miscRegfileWrites                     846                       # number of misc regfile writes (Count)
system.cpu0.MemDepUnit__0.insertedLoads        657126                       # Number of loads inserted to the mem dependence unit. (Count)
system.cpu0.MemDepUnit__0.insertedStores       216977                       # Number of stores inserted to the mem dependence unit. (Count)
system.cpu0.MemDepUnit__0.conflictingLoads        16889                       # Number of conflicting loads. (Count)
system.cpu0.MemDepUnit__0.conflictingStores         8609                       # Number of conflicting stores. (Count)
system.cpu0.MemDepUnit__1.insertedLoads             0                       # Number of loads inserted to the mem dependence unit. (Count)
system.cpu0.MemDepUnit__1.insertedStores            0                       # Number of stores inserted to the mem dependence unit. (Count)
system.cpu0.MemDepUnit__1.conflictingLoads            0                       # Number of conflicting loads. (Count)
system.cpu0.MemDepUnit__1.conflictingStores            0                       # Number of conflicting stores. (Count)
system.cpu0.MemDepUnit__2.insertedLoads             0                       # Number of loads inserted to the mem dependence unit. (Count)
system.cpu0.MemDepUnit__2.insertedStores            0                       # Number of stores inserted to the mem dependence unit. (Count)
system.cpu0.MemDepUnit__2.conflictingLoads            0                       # Number of conflicting loads. (Count)
system.cpu0.MemDepUnit__2.conflictingStores            0                       # Number of conflicting stores. (Count)
system.cpu0.MemDepUnit__3.insertedLoads             0                       # Number of loads inserted to the mem dependence unit. (Count)
system.cpu0.MemDepUnit__3.insertedStores            0                       # Number of stores inserted to the mem dependence unit. (Count)
system.cpu0.MemDepUnit__3.conflictingLoads            0                       # Number of conflicting loads. (Count)
system.cpu0.MemDepUnit__3.conflictingStores            0                       # Number of conflicting stores. (Count)
system.cpu0.branchPred.lookups                 512566                       # Number of BP lookups (Count)
system.cpu0.branchPred.condPredicted           454202                       # Number of conditional branches predicted (Count)
system.cpu0.branchPred.condIncorrect            17057                       # Number of conditional branches incorrect (Count)
system.cpu0.branchPred.BTBLookups              270511                       # Number of BTB lookups (Count)
system.cpu0.branchPred.BTBUpdates                8668                       # Number of BTB updates (Count)
system.cpu0.branchPred.BTBHits                 266416                       # Number of BTB hits (Count)
system.cpu0.branchPred.BTBHitRatio           0.984862                       # BTB Hit Ratio (Ratio)
system.cpu0.branchPred.RASUsed                  13397                       # Number of times the RAS was used to get a target. (Count)
system.cpu0.branchPred.RASIncorrect                 8                       # Number of incorrect RAS predictions. (Count)
system.cpu0.branchPred.indirectLookups           9914                       # Number of indirect predictor lookups. (Count)
system.cpu0.branchPred.indirectHits              5169                       # Number of indirect target hits. (Count)
system.cpu0.branchPred.indirectMisses            4745                       # Number of indirect misses. (Count)
system.cpu0.branchPred.indirectMispredicted         1176                       # Number of mispredicted indirect branches. (Count)
system.cpu0.commit.commitSquashedInsts        1035493                       # The number of squashed insts skipped by commit (Count)
system.cpu0.commit.commitNonSpecStalls            853                       # The number of times commit has been forced to stall to communicate backwards (Count)
system.cpu0.commit.branchMispredicts            18234                       # The number of times a branch was mispredicted (Count)
system.cpu0.commit.numCommittedDist::samples      8519262                       # Number of insts commited each cycle (Count)
system.cpu0.commit.numCommittedDist::mean     0.442331                       # Number of insts commited each cycle (Count)
system.cpu0.commit.numCommittedDist::stdev     1.515485                       # Number of insts commited each cycle (Count)
system.cpu0.commit.numCommittedDist::underflows            0      0.00%      0.00% # Number of insts commited each cycle (Count)
system.cpu0.commit.numCommittedDist::0        7557445     88.71%     88.71% # Number of insts commited each cycle (Count)
system.cpu0.commit.numCommittedDist::1         232191      2.73%     91.44% # Number of insts commited each cycle (Count)
system.cpu0.commit.numCommittedDist::2          93503      1.10%     92.53% # Number of insts commited each cycle (Count)
system.cpu0.commit.numCommittedDist::3         242352      2.84%     95.38% # Number of insts commited each cycle (Count)
system.cpu0.commit.numCommittedDist::4          44875      0.53%     95.90% # Number of insts commited each cycle (Count)
system.cpu0.commit.numCommittedDist::5          98888      1.16%     97.07% # Number of insts commited each cycle (Count)
system.cpu0.commit.numCommittedDist::6          16884      0.20%     97.26% # Number of insts commited each cycle (Count)
system.cpu0.commit.numCommittedDist::7          18156      0.21%     97.48% # Number of insts commited each cycle (Count)
system.cpu0.commit.numCommittedDist::8         214968      2.52%    100.00% # Number of insts commited each cycle (Count)
system.cpu0.commit.numCommittedDist::overflows            0      0.00%    100.00% # Number of insts commited each cycle (Count)
system.cpu0.commit.numCommittedDist::min_value            0                       # Number of insts commited each cycle (Count)
system.cpu0.commit.numCommittedDist::max_value            8                       # Number of insts commited each cycle (Count)
system.cpu0.commit.numCommittedDist::total      8519262                       # Number of insts commited each cycle (Count)
system.cpu0.commit.instsCommitted             2178739                       # Number of instructions committed (Count)
system.cpu0.commit.opsCommitted               3768333                       # Number of ops (including micro ops) committed (Count)
system.cpu0.commit.memRefs                     699126                       # Number of memory references committed (Count)
system.cpu0.commit.loads                       519806                       # Number of loads committed (Count)
system.cpu0.commit.amos                             0                       # Number of atomic instructions committed (Count)
system.cpu0.commit.membars                          2                       # Number of memory barriers committed (Count)
system.cpu0.commit.branches                    360538                       # Number of branches committed (Count)
system.cpu0.commit.vectorInstructions               0                       # Number of committed Vector instructions. (Count)
system.cpu0.commit.floating                     80355                       # Number of committed floating point instructions. (Count)
system.cpu0.commit.integer                    3708876                       # Number of committed integer instructions. (Count)
system.cpu0.commit.functionCalls                 9584                       # Number of function calls committed. (Count)
system.cpu0.commit.committedInstType_0::No_OpClass        10758      0.29%      0.29% # Class of committed instruction (Count)
system.cpu0.commit.committedInstType_0::IntAlu      2978047     79.03%     79.31% # Class of committed instruction (Count)
system.cpu0.commit.committedInstType_0::IntMult           29      0.00%     79.31% # Class of committed instruction (Count)
system.cpu0.commit.committedInstType_0::IntDiv        35830      0.95%     80.27% # Class of committed instruction (Count)
system.cpu0.commit.committedInstType_0::FloatAdd         3175      0.08%     80.35% # Class of committed instruction (Count)
system.cpu0.commit.committedInstType_0::FloatCmp            0      0.00%     80.35% # Class of committed instruction (Count)
system.cpu0.commit.committedInstType_0::FloatCvt         1504      0.04%     80.39% # Class of committed instruction (Count)
system.cpu0.commit.committedInstType_0::FloatMult            0      0.00%     80.39% # Class of committed instruction (Count)
system.cpu0.commit.committedInstType_0::FloatMultAcc            0      0.00%     80.39% # Class of committed instruction (Count)
system.cpu0.commit.committedInstType_0::FloatDiv            0      0.00%     80.39% # Class of committed instruction (Count)
system.cpu0.commit.committedInstType_0::FloatMisc            0      0.00%     80.39% # Class of committed instruction (Count)
system.cpu0.commit.committedInstType_0::FloatSqrt            0      0.00%     80.39% # Class of committed instruction (Count)
system.cpu0.commit.committedInstType_0::SimdAdd         6610      0.18%     80.56% # Class of committed instruction (Count)
system.cpu0.commit.committedInstType_0::SimdAddAcc            0      0.00%     80.56% # Class of committed instruction (Count)
system.cpu0.commit.committedInstType_0::SimdAlu        11924      0.32%     80.88% # Class of committed instruction (Count)
system.cpu0.commit.committedInstType_0::SimdCmp            0      0.00%     80.88% # Class of committed instruction (Count)
system.cpu0.commit.committedInstType_0::SimdCvt        12916      0.34%     81.22% # Class of committed instruction (Count)
system.cpu0.commit.committedInstType_0::SimdMisc         7061      0.19%     81.41% # Class of committed instruction (Count)
system.cpu0.commit.committedInstType_0::SimdMult            0      0.00%     81.41% # Class of committed instruction (Count)
system.cpu0.commit.committedInstType_0::SimdMultAcc            0      0.00%     81.41% # Class of committed instruction (Count)
system.cpu0.commit.committedInstType_0::SimdShift         1353      0.04%     81.45% # Class of committed instruction (Count)
system.cpu0.commit.committedInstType_0::SimdShiftAcc            0      0.00%     81.45% # Class of committed instruction (Count)
system.cpu0.commit.committedInstType_0::SimdDiv            0      0.00%     81.45% # Class of committed instruction (Count)
system.cpu0.commit.committedInstType_0::SimdSqrt            0      0.00%     81.45% # Class of committed instruction (Count)
system.cpu0.commit.committedInstType_0::SimdFloatAdd            0      0.00%     81.45% # Class of committed instruction (Count)
system.cpu0.commit.committedInstType_0::SimdFloatAlu            0      0.00%     81.45% # Class of committed instruction (Count)
system.cpu0.commit.committedInstType_0::SimdFloatCmp            0      0.00%     81.45% # Class of committed instruction (Count)
system.cpu0.commit.committedInstType_0::SimdFloatCvt            0      0.00%     81.45% # Class of committed instruction (Count)
system.cpu0.commit.committedInstType_0::SimdFloatDiv            0      0.00%     81.45% # Class of committed instruction (Count)
system.cpu0.commit.committedInstType_0::SimdFloatMisc            0      0.00%     81.45% # Class of committed instruction (Count)
system.cpu0.commit.committedInstType_0::SimdFloatMult            0      0.00%     81.45% # Class of committed instruction (Count)
system.cpu0.commit.committedInstType_0::SimdFloatMultAcc            0      0.00%     81.45% # Class of committed instruction (Count)
system.cpu0.commit.committedInstType_0::SimdFloatSqrt            0      0.00%     81.45% # Class of committed instruction (Count)
system.cpu0.commit.committedInstType_0::SimdReduceAdd            0      0.00%     81.45% # Class of committed instruction (Count)
system.cpu0.commit.committedInstType_0::SimdReduceAlu            0      0.00%     81.45% # Class of committed instruction (Count)
system.cpu0.commit.committedInstType_0::SimdReduceCmp            0      0.00%     81.45% # Class of committed instruction (Count)
system.cpu0.commit.committedInstType_0::SimdFloatReduceAdd            0      0.00%     81.45% # Class of committed instruction (Count)
system.cpu0.commit.committedInstType_0::SimdFloatReduceCmp            0      0.00%     81.45% # Class of committed instruction (Count)
system.cpu0.commit.committedInstType_0::SimdAes            0      0.00%     81.45% # Class of committed instruction (Count)
system.cpu0.commit.committedInstType_0::SimdAesMix            0      0.00%     81.45% # Class of committed instruction (Count)
system.cpu0.commit.committedInstType_0::SimdSha1Hash            0      0.00%     81.45% # Class of committed instruction (Count)
system.cpu0.commit.committedInstType_0::SimdSha1Hash2            0      0.00%     81.45% # Class of committed instruction (Count)
system.cpu0.commit.committedInstType_0::SimdSha256Hash            0      0.00%     81.45% # Class of committed instruction (Count)
system.cpu0.commit.committedInstType_0::SimdSha256Hash2            0      0.00%     81.45% # Class of committed instruction (Count)
system.cpu0.commit.committedInstType_0::SimdShaSigma2            0      0.00%     81.45% # Class of committed instruction (Count)
system.cpu0.commit.committedInstType_0::SimdShaSigma3            0      0.00%     81.45% # Class of committed instruction (Count)
system.cpu0.commit.committedInstType_0::SimdPredAlu            0      0.00%     81.45% # Class of committed instruction (Count)
system.cpu0.commit.committedInstType_0::MemRead       498777     13.24%     94.68% # Class of committed instruction (Count)
system.cpu0.commit.committedInstType_0::MemWrite       165406      4.39%     99.07% # Class of committed instruction (Count)
system.cpu0.commit.committedInstType_0::FloatMemRead        21029      0.56%     99.63% # Class of committed instruction (Count)
system.cpu0.commit.committedInstType_0::FloatMemWrite        13914      0.37%    100.00% # Class of committed instruction (Count)
system.cpu0.commit.committedInstType_0::IprAccess            0      0.00%    100.00% # Class of committed instruction (Count)
system.cpu0.commit.committedInstType_0::InstPrefetch            0      0.00%    100.00% # Class of committed instruction (Count)
system.cpu0.commit.committedInstType_0::total      3768333                       # Class of committed instruction (Count)
system.cpu0.commit.commitEligibleSamples       214968                       # number cycles where commit BW limit reached (Cycle)
system.cpu0.decode.idleCycles                  466703                       # Number of cycles decode is idle (Cycle)
system.cpu0.decode.blockedCycles              7470744                       # Number of cycles decode is blocked (Cycle)
system.cpu0.decode.runCycles                   515598                       # Number of cycles decode is running (Cycle)
system.cpu0.decode.unblockCycles               197423                       # Number of cycles decode is unblocking (Cycle)
system.cpu0.decode.squashCycles                 18950                       # Number of cycles decode is squashing (Cycle)
system.cpu0.decode.branchResolved              252540                       # Number of times decode resolved a branch (Count)
system.cpu0.decode.branchMispred                 1200                       # Number of times decode detected a branch misprediction (Count)
system.cpu0.decode.decodedInsts               4995946                       # Number of instructions handled by decode (Count)
system.cpu0.decode.squashedInsts                 5639                       # Number of squashed instructions handled by decode (Count)
system.cpu0.fetch.icacheStallCycles            454599                       # Number of cycles fetch is stalled on an Icache miss (Cycle)
system.cpu0.fetch.insts                       3017867                       # Number of instructions fetch has processed (Count)
system.cpu0.fetch.branches                     512566                       # Number of branches that fetch encountered (Count)
system.cpu0.fetch.predictedBranches            284982                       # Number of branches that fetch has predicted taken (Count)
system.cpu0.fetch.cycles                      7964801                       # Number of cycles fetch has run and was not squashing or blocked (Cycle)
system.cpu0.fetch.squashCycles                  40256                       # Number of cycles fetch has spent squashing (Cycle)
system.cpu0.fetch.miscStallCycles               14763                       # Number of cycles fetch has spent waiting on interrupts, or bad addresses, or out of MSHRs (Cycle)
system.cpu0.fetch.pendingTrapStallCycles        15656                       # Number of stall cycles due to pending traps (Cycle)
system.cpu0.fetch.icacheWaitRetryStallCycles       199471                       # Number of stall cycles due to full MSHR (Cycle)
system.cpu0.fetch.cacheLines                   264836                       # Number of cache lines fetched (Count)
system.cpu0.fetch.icacheSquashes                 4704                       # Number of outstanding Icache misses that were squashed (Count)
system.cpu0.fetch.nisnDist::samples           8669418                       # Number of instructions fetched each cycle (Total) (Count)
system.cpu0.fetch.nisnDist::mean             0.611554                       # Number of instructions fetched each cycle (Total) (Count)
system.cpu0.fetch.nisnDist::stdev            1.967874                       # Number of instructions fetched each cycle (Total) (Count)
system.cpu0.fetch.nisnDist::underflows              0      0.00%      0.00% # Number of instructions fetched each cycle (Total) (Count)
system.cpu0.fetch.nisnDist::0                 7792993     89.89%     89.89% # Number of instructions fetched each cycle (Total) (Count)
system.cpu0.fetch.nisnDist::1                   42157      0.49%     90.38% # Number of instructions fetched each cycle (Total) (Count)
system.cpu0.fetch.nisnDist::2                   39130      0.45%     90.83% # Number of instructions fetched each cycle (Total) (Count)
system.cpu0.fetch.nisnDist::3                   66568      0.77%     91.60% # Number of instructions fetched each cycle (Total) (Count)
system.cpu0.fetch.nisnDist::4                  138165      1.59%     93.19% # Number of instructions fetched each cycle (Total) (Count)
system.cpu0.fetch.nisnDist::5                   61005      0.70%     93.89% # Number of instructions fetched each cycle (Total) (Count)
system.cpu0.fetch.nisnDist::6                   33808      0.39%     94.28% # Number of instructions fetched each cycle (Total) (Count)
system.cpu0.fetch.nisnDist::7                   43575      0.50%     94.79% # Number of instructions fetched each cycle (Total) (Count)
system.cpu0.fetch.nisnDist::8                  452017      5.21%    100.00% # Number of instructions fetched each cycle (Total) (Count)
system.cpu0.fetch.nisnDist::overflows               0      0.00%    100.00% # Number of instructions fetched each cycle (Total) (Count)
system.cpu0.fetch.nisnDist::min_value               0                       # Number of instructions fetched each cycle (Total) (Count)
system.cpu0.fetch.nisnDist::max_value               8                       # Number of instructions fetched each cycle (Total) (Count)
system.cpu0.fetch.nisnDist::total             8669418                       # Number of instructions fetched each cycle (Total) (Count)
system.cpu0.fetch.branchRate                 0.052279                       # Number of branch fetches per cycle (Ratio)
system.cpu0.fetch.rate                       0.307804                       # Number of inst fetches per cycle ((Count/Cycle))
system.cpu0.iew.idleCycles                          0                       # Number of cycles IEW is idle (Cycle)
system.cpu0.iew.squashCycles                    18950                       # Number of cycles IEW is squashing (Cycle)
system.cpu0.iew.blockCycles                   4910207                       # Number of cycles IEW is blocking (Cycle)
system.cpu0.iew.unblockCycles                  150635                       # Number of cycles IEW is unblocking (Cycle)
system.cpu0.iew.dispatchedInsts               4812828                       # Number of instructions dispatched to IQ (Count)
system.cpu0.iew.dispSquashedInsts                1017                       # Number of squashed instructions skipped by dispatch (Count)
system.cpu0.iew.dispLoadInsts                  657126                       # Number of dispatched load instructions (Count)
system.cpu0.iew.dispStoreInsts                 216977                       # Number of dispatched store instructions (Count)
system.cpu0.iew.dispNonSpecInsts                  898                       # Number of dispatched non-speculative instructions (Count)
system.cpu0.iew.iqFullEvents                     7300                       # Number of times the IQ has become full, causing a stall (Count)
system.cpu0.iew.lsqFullEvents                  138144                       # Number of times the LSQ has become full, causing a stall (Count)
system.cpu0.iew.memOrderViolationEvents           146                       # Number of memory order violations (Count)
system.cpu0.iew.predictedTakenIncorrect          7863                       # Number of branches that were predicted taken incorrectly (Count)
system.cpu0.iew.predictedNotTakenIncorrect        12593                       # Number of branches that were predicted not taken incorrectly (Count)
system.cpu0.iew.branchMispredicts               20456                       # Number of branch mispredicts detected at execute (Count)
system.cpu0.iew.instsToCommit                 4402708                       # Cumulative count of insts sent to commit (Count)
system.cpu0.iew.writebackCount                4390985                       # Cumulative count of insts written-back (Count)
system.cpu0.iew.producerInst                  3541952                       # Number of instructions producing a value (Count)
system.cpu0.iew.consumerInst                  6529878                       # Number of instructions consuming a value (Count)
system.cpu0.iew.wbRate                       0.447853                       # Insts written-back per cycle ((Count/Cycle))
system.cpu0.iew.wbFanout                     0.542422                       # Average fanout of values written-back ((Count/Count))
system.cpu0.interrupts.clk_domain.clock          8000                       # Clock period in ticks (Tick)
system.cpu0.lsq0.forwLoads                      58948                       # Number of loads that had data forwarded from stores (Count)
system.cpu0.lsq0.squashedLoads                 137320                       # Number of loads squashed (Count)
system.cpu0.lsq0.ignoredResponses                 102                       # Number of memory responses ignored because the instruction is squashed (Count)
system.cpu0.lsq0.memOrderViolation                146                       # Number of memory ordering violations (Count)
system.cpu0.lsq0.squashedStores                 37657                       # Number of stores squashed (Count)
system.cpu0.lsq0.rescheduledLoads                  14                       # Number of loads that were rescheduled (Count)
system.cpu0.lsq0.blockedByCache                  2115                       # Number of times an access to memory failed due to the cache being blocked (Count)
system.cpu0.lsq0.loadToUse::samples            519728                       # Distribution of cycle latency between the first time a load is issued and its completion (Unspecified)
system.cpu0.lsq0.loadToUse::mean            61.801127                       # Distribution of cycle latency between the first time a load is issued and its completion (Unspecified)
system.cpu0.lsq0.loadToUse::stdev          209.272747                       # Distribution of cycle latency between the first time a load is issued and its completion (Unspecified)
system.cpu0.lsq0.loadToUse::0-9                474301     91.26%     91.26% # Distribution of cycle latency between the first time a load is issued and its completion (Unspecified)
system.cpu0.lsq0.loadToUse::10-19                  87      0.02%     91.28% # Distribution of cycle latency between the first time a load is issued and its completion (Unspecified)
system.cpu0.lsq0.loadToUse::20-29                  81      0.02%     91.29% # Distribution of cycle latency between the first time a load is issued and its completion (Unspecified)
system.cpu0.lsq0.loadToUse::30-39                  82      0.02%     91.31% # Distribution of cycle latency between the first time a load is issued and its completion (Unspecified)
system.cpu0.lsq0.loadToUse::40-49                  79      0.02%     91.32% # Distribution of cycle latency between the first time a load is issued and its completion (Unspecified)
system.cpu0.lsq0.loadToUse::50-59                 131      0.03%     91.35% # Distribution of cycle latency between the first time a load is issued and its completion (Unspecified)
system.cpu0.lsq0.loadToUse::60-69                 119      0.02%     91.37% # Distribution of cycle latency between the first time a load is issued and its completion (Unspecified)
system.cpu0.lsq0.loadToUse::70-79                 100      0.02%     91.39% # Distribution of cycle latency between the first time a load is issued and its completion (Unspecified)
system.cpu0.lsq0.loadToUse::80-89                  92      0.02%     91.41% # Distribution of cycle latency between the first time a load is issued and its completion (Unspecified)
system.cpu0.lsq0.loadToUse::90-99                  87      0.02%     91.42% # Distribution of cycle latency between the first time a load is issued and its completion (Unspecified)
system.cpu0.lsq0.loadToUse::100-109                62      0.01%     91.44% # Distribution of cycle latency between the first time a load is issued and its completion (Unspecified)
system.cpu0.lsq0.loadToUse::110-119                77      0.01%     91.45% # Distribution of cycle latency between the first time a load is issued and its completion (Unspecified)
system.cpu0.lsq0.loadToUse::120-129                52      0.01%     91.46% # Distribution of cycle latency between the first time a load is issued and its completion (Unspecified)
system.cpu0.lsq0.loadToUse::130-139                51      0.01%     91.47% # Distribution of cycle latency between the first time a load is issued and its completion (Unspecified)
system.cpu0.lsq0.loadToUse::140-149                46      0.01%     91.48% # Distribution of cycle latency between the first time a load is issued and its completion (Unspecified)
system.cpu0.lsq0.loadToUse::150-159                63      0.01%     91.49% # Distribution of cycle latency between the first time a load is issued and its completion (Unspecified)
system.cpu0.lsq0.loadToUse::160-169                72      0.01%     91.51% # Distribution of cycle latency between the first time a load is issued and its completion (Unspecified)
system.cpu0.lsq0.loadToUse::170-179               133      0.03%     91.53% # Distribution of cycle latency between the first time a load is issued and its completion (Unspecified)
system.cpu0.lsq0.loadToUse::180-189               583      0.11%     91.64% # Distribution of cycle latency between the first time a load is issued and its completion (Unspecified)
system.cpu0.lsq0.loadToUse::190-199                40      0.01%     91.65% # Distribution of cycle latency between the first time a load is issued and its completion (Unspecified)
system.cpu0.lsq0.loadToUse::200-209                56      0.01%     91.66% # Distribution of cycle latency between the first time a load is issued and its completion (Unspecified)
system.cpu0.lsq0.loadToUse::210-219                64      0.01%     91.67% # Distribution of cycle latency between the first time a load is issued and its completion (Unspecified)
system.cpu0.lsq0.loadToUse::220-229               120      0.02%     91.70% # Distribution of cycle latency between the first time a load is issued and its completion (Unspecified)
system.cpu0.lsq0.loadToUse::230-239               168      0.03%     91.73% # Distribution of cycle latency between the first time a load is issued and its completion (Unspecified)
system.cpu0.lsq0.loadToUse::240-249              1073      0.21%     91.94% # Distribution of cycle latency between the first time a load is issued and its completion (Unspecified)
system.cpu0.lsq0.loadToUse::250-259                41      0.01%     91.94% # Distribution of cycle latency between the first time a load is issued and its completion (Unspecified)
system.cpu0.lsq0.loadToUse::260-269                62      0.01%     91.96% # Distribution of cycle latency between the first time a load is issued and its completion (Unspecified)
system.cpu0.lsq0.loadToUse::270-279                96      0.02%     91.97% # Distribution of cycle latency between the first time a load is issued and its completion (Unspecified)
system.cpu0.lsq0.loadToUse::280-289               193      0.04%     92.01% # Distribution of cycle latency between the first time a load is issued and its completion (Unspecified)
system.cpu0.lsq0.loadToUse::290-299               242      0.05%     92.06% # Distribution of cycle latency between the first time a load is issued and its completion (Unspecified)
system.cpu0.lsq0.loadToUse::overflows           41275      7.94%    100.00% # Distribution of cycle latency between the first time a load is issued and its completion (Unspecified)
system.cpu0.lsq0.loadToUse::min_value               2                       # Distribution of cycle latency between the first time a load is issued and its completion (Unspecified)
system.cpu0.lsq0.loadToUse::max_value            2626                       # Distribution of cycle latency between the first time a load is issued and its completion (Unspecified)
system.cpu0.lsq0.loadToUse::total              519728                       # Distribution of cycle latency between the first time a load is issued and its completion (Unspecified)
system.cpu0.mmu.dtb.rdAccesses                 623767                       # TLB accesses on read requests (Count)
system.cpu0.mmu.dtb.wrAccesses                 204882                       # TLB accesses on write requests (Count)
system.cpu0.mmu.dtb.rdMisses                     3169                       # TLB misses on read requests (Count)
system.cpu0.mmu.dtb.wrMisses                      437                       # TLB misses on write requests (Count)
system.cpu0.mmu.dtb.walker.power_state.pwrStateResidencyTicks::UNDEFINED   4955873000                       # Cumulative time (in ticks) in various power states (Tick)
system.cpu0.mmu.itb.rdAccesses                      0                       # TLB accesses on read requests (Count)
system.cpu0.mmu.itb.wrAccesses                 267279                       # TLB accesses on write requests (Count)
system.cpu0.mmu.itb.rdMisses                        0                       # TLB misses on read requests (Count)
system.cpu0.mmu.itb.wrMisses                     2992                       # TLB misses on write requests (Count)
system.cpu0.mmu.itb.walker.power_state.pwrStateResidencyTicks::UNDEFINED   4955873000                       # Cumulative time (in ticks) in various power states (Tick)
system.cpu0.power_state.pwrStateResidencyTicks::ON   4955873000                       # Cumulative time (in ticks) in various power states (Tick)
system.cpu0.rename.squashCycles                 18950                       # Number of cycles rename is squashing (Cycle)
system.cpu0.rename.idleCycles                  541528                       # Number of cycles rename is idle (Cycle)
system.cpu0.rename.blockCycles                6505070                       # Number of cycles rename is blocking (Cycle)
system.cpu0.rename.serializeStallCycles         22019                       # count of cycles rename stalled for serializing inst (Cycle)
system.cpu0.rename.runCycles                   628932                       # Number of cycles rename is running (Cycle)
system.cpu0.rename.unblockCycles               952919                       # Number of cycles rename is unblocking (Cycle)
system.cpu0.rename.renamedInsts               4915911                       # Number of instructions processed by rename (Count)
system.cpu0.rename.ROBFullEvents               101105                       # Number of times rename has blocked due to ROB full (Count)
system.cpu0.rename.IQFullEvents                251607                       # Number of times rename has blocked due to IQ full (Count)
system.cpu0.rename.LQFullEvents                144440                       # Number of times rename has blocked due to LQ full (Count)
system.cpu0.rename.SQFullEvents                502076                       # Number of times rename has blocked due to SQ full (Count)
system.cpu0.rename.fullRegistersEvents           2762                       # Number of times there has been no free registers (Count)
system.cpu0.rename.renamedOperands           10392136                       # Number of destination operands rename has renamed (Count)
system.cpu0.rename.lookups                   18622068                       # Number of register rename lookups that rename has made (Count)
system.cpu0.rename.intLookups                 6942741                       # Number of integer rename lookups (Count)
system.cpu0.rename.fpLookups                   184458                       # Number of floating rename lookups (Count)
system.cpu0.rename.committedMaps              8043319                       # Number of HB maps that are committed (Count)
system.cpu0.rename.undoneMaps                 2348817                       # Number of HB maps that are undone due to squashing (Count)
system.cpu0.rename.serializing                    874                       # count of serializing insts renamed (Count)
system.cpu0.rename.tempSerializing                860                       # count of temporary serializing insts renamed (Count)
system.cpu0.rename.skidInsts                   909809                       # count of insts added to the skid buffer (Count)
system.cpu0.rob.reads                        13100372                       # The number of ROB reads (Count)
system.cpu0.rob.writes                        9758031                       # The number of ROB writes (Count)
system.cpu0.thread_0.numInsts                 2178739                       # Number of Instructions committed (Count)
system.cpu0.thread_0.numOps                   3768333                       # Number of Ops committed (Count)
system.cpu0.thread_0.numMemRefs                     0                       # Number of Memory References (Count)
system.cpu0.workload.numSyscalls                   63                       # Number of system calls (Count)
system.cpu1.numCycles                         9331545                       # Number of cpu cycles simulated (Cycle)
system.cpu1.numWorkItemsStarted                     0                       # Number of work items this cpu started (Count)
system.cpu1.numWorkItemsCompleted                   0                       # Number of work items this cpu completed (Count)
system.cpu1.instsAdded                        4812514                       # Number of instructions added to the IQ (excludes non-spec) (Count)
system.cpu1.nonSpecInstsAdded                    1093                       # Number of non-speculative instructions added to the IQ (Count)
system.cpu1.instsIssued                       4450830                       # Number of instructions issued (Count)
system.cpu1.squashedInstsIssued                  2860                       # Number of squashed instructions issued (Count)
system.cpu1.squashedInstsExamined             1045274                       # Number of squashed instructions iterated over during squash; mainly for profiling (Count)
system.cpu1.squashedOperandsExamined          2257181                       # Number of squashed operands that are examined and possibly removed from graph (Count)
system.cpu1.squashedNonSpecRemoved                240                       # Number of squashed non-spec instructions that were removed (Count)
system.cpu1.numIssuedDist::samples            8302020                       # Number of insts issued each cycle (Count)
system.cpu1.numIssuedDist::mean              0.536114                       # Number of insts issued each cycle (Count)
system.cpu1.numIssuedDist::stdev             1.476388                       # Number of insts issued each cycle (Count)
system.cpu1.numIssuedDist::underflows               0      0.00%      0.00% # Number of insts issued each cycle (Count)
system.cpu1.numIssuedDist::0                  7055096     84.98%     84.98% # Number of insts issued each cycle (Count)
system.cpu1.numIssuedDist::1                   198709      2.39%     87.37% # Number of insts issued each cycle (Count)
system.cpu1.numIssuedDist::2                   228921      2.76%     90.13% # Number of insts issued each cycle (Count)
system.cpu1.numIssuedDist::3                   242392      2.92%     93.05% # Number of insts issued each cycle (Count)
system.cpu1.numIssuedDist::4                   194950      2.35%     95.40% # Number of insts issued each cycle (Count)
system.cpu1.numIssuedDist::5                   148774      1.79%     97.19% # Number of insts issued each cycle (Count)
system.cpu1.numIssuedDist::6                   127123      1.53%     98.72% # Number of insts issued each cycle (Count)
system.cpu1.numIssuedDist::7                    67745      0.82%     99.54% # Number of insts issued each cycle (Count)
system.cpu1.numIssuedDist::8                    38310      0.46%    100.00% # Number of insts issued each cycle (Count)
system.cpu1.numIssuedDist::overflows                0      0.00%    100.00% # Number of insts issued each cycle (Count)
system.cpu1.numIssuedDist::min_value                0                       # Number of insts issued each cycle (Count)
system.cpu1.numIssuedDist::max_value                8                       # Number of insts issued each cycle (Count)
system.cpu1.numIssuedDist::total              8302020                       # Number of insts issued each cycle (Count)
system.cpu1.statFuBusy::No_OpClass                  0      0.00%      0.00% # attempts to use FU when none available (Count)
system.cpu1.statFuBusy::IntAlu                  41925     65.63%     65.63% # attempts to use FU when none available (Count)
system.cpu1.statFuBusy::IntMult                     0      0.00%     65.63% # attempts to use FU when none available (Count)
system.cpu1.statFuBusy::IntDiv                      0      0.00%     65.63% # attempts to use FU when none available (Count)
system.cpu1.statFuBusy::FloatAdd                    0      0.00%     65.63% # attempts to use FU when none available (Count)
system.cpu1.statFuBusy::FloatCmp                    0      0.00%     65.63% # attempts to use FU when none available (Count)
system.cpu1.statFuBusy::FloatCvt                    1      0.00%     65.64% # attempts to use FU when none available (Count)
system.cpu1.statFuBusy::FloatMult                   0      0.00%     65.64% # attempts to use FU when none available (Count)
system.cpu1.statFuBusy::FloatMultAcc                0      0.00%     65.64% # attempts to use FU when none available (Count)
system.cpu1.statFuBusy::FloatDiv                    0      0.00%     65.64% # attempts to use FU when none available (Count)
system.cpu1.statFuBusy::FloatMisc                   0      0.00%     65.64% # attempts to use FU when none available (Count)
system.cpu1.statFuBusy::FloatSqrt                   0      0.00%     65.64% # attempts to use FU when none available (Count)
system.cpu1.statFuBusy::SimdAdd                     0      0.00%     65.64% # attempts to use FU when none available (Count)
system.cpu1.statFuBusy::SimdAddAcc                  0      0.00%     65.64% # attempts to use FU when none available (Count)
system.cpu1.statFuBusy::SimdAlu                   121      0.19%     65.83% # attempts to use FU when none available (Count)
system.cpu1.statFuBusy::SimdCmp                     0      0.00%     65.83% # attempts to use FU when none available (Count)
system.cpu1.statFuBusy::SimdCvt                   120      0.19%     66.01% # attempts to use FU when none available (Count)
system.cpu1.statFuBusy::SimdMisc                    0      0.00%     66.01% # attempts to use FU when none available (Count)
system.cpu1.statFuBusy::SimdMult                    0      0.00%     66.01% # attempts to use FU when none available (Count)
system.cpu1.statFuBusy::SimdMultAcc                 0      0.00%     66.01% # attempts to use FU when none available (Count)
system.cpu1.statFuBusy::SimdShift                 136      0.21%     66.23% # attempts to use FU when none available (Count)
system.cpu1.statFuBusy::SimdShiftAcc                0      0.00%     66.23% # attempts to use FU when none available (Count)
system.cpu1.statFuBusy::SimdDiv                     0      0.00%     66.23% # attempts to use FU when none available (Count)
system.cpu1.statFuBusy::SimdSqrt                    0      0.00%     66.23% # attempts to use FU when none available (Count)
system.cpu1.statFuBusy::SimdFloatAdd                0      0.00%     66.23% # attempts to use FU when none available (Count)
system.cpu1.statFuBusy::SimdFloatAlu                0      0.00%     66.23% # attempts to use FU when none available (Count)
system.cpu1.statFuBusy::SimdFloatCmp                0      0.00%     66.23% # attempts to use FU when none available (Count)
system.cpu1.statFuBusy::SimdFloatCvt                0      0.00%     66.23% # attempts to use FU when none available (Count)
system.cpu1.statFuBusy::SimdFloatDiv                0      0.00%     66.23% # attempts to use FU when none available (Count)
system.cpu1.statFuBusy::SimdFloatMisc               0      0.00%     66.23% # attempts to use FU when none available (Count)
system.cpu1.statFuBusy::SimdFloatMult               0      0.00%     66.23% # attempts to use FU when none available (Count)
system.cpu1.statFuBusy::SimdFloatMultAcc            0      0.00%     66.23% # attempts to use FU when none available (Count)
system.cpu1.statFuBusy::SimdFloatSqrt               0      0.00%     66.23% # attempts to use FU when none available (Count)
system.cpu1.statFuBusy::SimdReduceAdd               0      0.00%     66.23% # attempts to use FU when none available (Count)
system.cpu1.statFuBusy::SimdReduceAlu               0      0.00%     66.23% # attempts to use FU when none available (Count)
system.cpu1.statFuBusy::SimdReduceCmp               0      0.00%     66.23% # attempts to use FU when none available (Count)
system.cpu1.statFuBusy::SimdFloatReduceAdd            0      0.00%     66.23% # attempts to use FU when none available (Count)
system.cpu1.statFuBusy::SimdFloatReduceCmp            0      0.00%     66.23% # attempts to use FU when none available (Count)
system.cpu1.statFuBusy::SimdAes                     0      0.00%     66.23% # attempts to use FU when none available (Count)
system.cpu1.statFuBusy::SimdAesMix                  0      0.00%     66.23% # attempts to use FU when none available (Count)
system.cpu1.statFuBusy::SimdSha1Hash                0      0.00%     66.23% # attempts to use FU when none available (Count)
system.cpu1.statFuBusy::SimdSha1Hash2               0      0.00%     66.23% # attempts to use FU when none available (Count)
system.cpu1.statFuBusy::SimdSha256Hash              0      0.00%     66.23% # attempts to use FU when none available (Count)
system.cpu1.statFuBusy::SimdSha256Hash2             0      0.00%     66.23% # attempts to use FU when none available (Count)
system.cpu1.statFuBusy::SimdShaSigma2               0      0.00%     66.23% # attempts to use FU when none available (Count)
system.cpu1.statFuBusy::SimdShaSigma3               0      0.00%     66.23% # attempts to use FU when none available (Count)
system.cpu1.statFuBusy::SimdPredAlu                 0      0.00%     66.23% # attempts to use FU when none available (Count)
system.cpu1.statFuBusy::MemRead                 11999     18.78%     85.01% # attempts to use FU when none available (Count)
system.cpu1.statFuBusy::MemWrite                 7726     12.10%     97.11% # attempts to use FU when none available (Count)
system.cpu1.statFuBusy::FloatMemRead             1407      2.20%     99.31% # attempts to use FU when none available (Count)
system.cpu1.statFuBusy::FloatMemWrite             441      0.69%    100.00% # attempts to use FU when none available (Count)
system.cpu1.statFuBusy::IprAccess                   0      0.00%    100.00% # attempts to use FU when none available (Count)
system.cpu1.statFuBusy::InstPrefetch                0      0.00%    100.00% # attempts to use FU when none available (Count)
system.cpu1.statIssuedInstType_0::No_OpClass        18125      0.41%      0.41% # Number of instructions issued per FU type, per thread (Count)
system.cpu1.statIssuedInstType_0::IntAlu      3490388     78.42%     78.83% # Number of instructions issued per FU type, per thread (Count)
system.cpu1.statIssuedInstType_0::IntMult           35      0.00%     78.83% # Number of instructions issued per FU type, per thread (Count)
system.cpu1.statIssuedInstType_0::IntDiv        38205      0.86%     79.69% # Number of instructions issued per FU type, per thread (Count)
system.cpu1.statIssuedInstType_0::FloatAdd         4297      0.10%     79.78% # Number of instructions issued per FU type, per thread (Count)
system.cpu1.statIssuedInstType_0::FloatCmp            0      0.00%     79.78% # Number of instructions issued per FU type, per thread (Count)
system.cpu1.statIssuedInstType_0::FloatCvt         1662      0.04%     79.82% # Number of instructions issued per FU type, per thread (Count)
system.cpu1.statIssuedInstType_0::FloatMult            0      0.00%     79.82% # Number of instructions issued per FU type, per thread (Count)
system.cpu1.statIssuedInstType_0::FloatMultAcc            0      0.00%     79.82% # Number of instructions issued per FU type, per thread (Count)
system.cpu1.statIssuedInstType_0::FloatDiv            0      0.00%     79.82% # Number of instructions issued per FU type, per thread (Count)
system.cpu1.statIssuedInstType_0::FloatMisc            0      0.00%     79.82% # Number of instructions issued per FU type, per thread (Count)
system.cpu1.statIssuedInstType_0::FloatSqrt            0      0.00%     79.82% # Number of instructions issued per FU type, per thread (Count)
system.cpu1.statIssuedInstType_0::SimdAdd         8185      0.18%     80.01% # Number of instructions issued per FU type, per thread (Count)
system.cpu1.statIssuedInstType_0::SimdAddAcc            0      0.00%     80.01% # Number of instructions issued per FU type, per thread (Count)
system.cpu1.statIssuedInstType_0::SimdAlu        16716      0.38%     80.38% # Number of instructions issued per FU type, per thread (Count)
system.cpu1.statIssuedInstType_0::SimdCmp            0      0.00%     80.38% # Number of instructions issued per FU type, per thread (Count)
system.cpu1.statIssuedInstType_0::SimdCvt        18236      0.41%     80.79% # Number of instructions issued per FU type, per thread (Count)
system.cpu1.statIssuedInstType_0::SimdMisc         8676      0.19%     80.99% # Number of instructions issued per FU type, per thread (Count)
system.cpu1.statIssuedInstType_0::SimdMult            0      0.00%     80.99% # Number of instructions issued per FU type, per thread (Count)
system.cpu1.statIssuedInstType_0::SimdMultAcc            0      0.00%     80.99% # Number of instructions issued per FU type, per thread (Count)
system.cpu1.statIssuedInstType_0::SimdShift         2426      0.05%     81.04% # Number of instructions issued per FU type, per thread (Count)
system.cpu1.statIssuedInstType_0::SimdShiftAcc            0      0.00%     81.04% # Number of instructions issued per FU type, per thread (Count)
system.cpu1.statIssuedInstType_0::SimdDiv            0      0.00%     81.04% # Number of instructions issued per FU type, per thread (Count)
system.cpu1.statIssuedInstType_0::SimdSqrt            0      0.00%     81.04% # Number of instructions issued per FU type, per thread (Count)
system.cpu1.statIssuedInstType_0::SimdFloatAdd            0      0.00%     81.04% # Number of instructions issued per FU type, per thread (Count)
system.cpu1.statIssuedInstType_0::SimdFloatAlu            0      0.00%     81.04% # Number of instructions issued per FU type, per thread (Count)
system.cpu1.statIssuedInstType_0::SimdFloatCmp            0      0.00%     81.04% # Number of instructions issued per FU type, per thread (Count)
system.cpu1.statIssuedInstType_0::SimdFloatCvt            0      0.00%     81.04% # Number of instructions issued per FU type, per thread (Count)
system.cpu1.statIssuedInstType_0::SimdFloatDiv            0      0.00%     81.04% # Number of instructions issued per FU type, per thread (Count)
system.cpu1.statIssuedInstType_0::SimdFloatMisc            0      0.00%     81.04% # Number of instructions issued per FU type, per thread (Count)
system.cpu1.statIssuedInstType_0::SimdFloatMult            0      0.00%     81.04% # Number of instructions issued per FU type, per thread (Count)
system.cpu1.statIssuedInstType_0::SimdFloatMultAcc            0      0.00%     81.04% # Number of instructions issued per FU type, per thread (Count)
system.cpu1.statIssuedInstType_0::SimdFloatSqrt            0      0.00%     81.04% # Number of instructions issued per FU type, per thread (Count)
system.cpu1.statIssuedInstType_0::SimdReduceAdd            0      0.00%     81.04% # Number of instructions issued per FU type, per thread (Count)
system.cpu1.statIssuedInstType_0::SimdReduceAlu            0      0.00%     81.04% # Number of instructions issued per FU type, per thread (Count)
system.cpu1.statIssuedInstType_0::SimdReduceCmp            0      0.00%     81.04% # Number of instructions issued per FU type, per thread (Count)
system.cpu1.statIssuedInstType_0::SimdFloatReduceAdd            0      0.00%     81.04% # Number of instructions issued per FU type, per thread (Count)
system.cpu1.statIssuedInstType_0::SimdFloatReduceCmp            0      0.00%     81.04% # Number of instructions issued per FU type, per thread (Count)
system.cpu1.statIssuedInstType_0::SimdAes            0      0.00%     81.04% # Number of instructions issued per FU type, per thread (Count)
system.cpu1.statIssuedInstType_0::SimdAesMix            0      0.00%     81.04% # Number of instructions issued per FU type, per thread (Count)
system.cpu1.statIssuedInstType_0::SimdSha1Hash            0      0.00%     81.04% # Number of instructions issued per FU type, per thread (Count)
system.cpu1.statIssuedInstType_0::SimdSha1Hash2            0      0.00%     81.04% # Number of instructions issued per FU type, per thread (Count)
system.cpu1.statIssuedInstType_0::SimdSha256Hash            0      0.00%     81.04% # Number of instructions issued per FU type, per thread (Count)
system.cpu1.statIssuedInstType_0::SimdSha256Hash2            0      0.00%     81.04% # Number of instructions issued per FU type, per thread (Count)
system.cpu1.statIssuedInstType_0::SimdShaSigma2            0      0.00%     81.04% # Number of instructions issued per FU type, per thread (Count)
system.cpu1.statIssuedInstType_0::SimdShaSigma3            0      0.00%     81.04% # Number of instructions issued per FU type, per thread (Count)
system.cpu1.statIssuedInstType_0::SimdPredAlu            0      0.00%     81.04% # Number of instructions issued per FU type, per thread (Count)
system.cpu1.statIssuedInstType_0::MemRead       603946     13.57%     94.61% # Number of instructions issued per FU type, per thread (Count)
system.cpu1.statIssuedInstType_0::MemWrite       188844      4.24%     98.85% # Number of instructions issued per FU type, per thread (Count)
system.cpu1.statIssuedInstType_0::FloatMemRead        33172      0.75%     99.60% # Number of instructions issued per FU type, per thread (Count)
system.cpu1.statIssuedInstType_0::FloatMemWrite        17917      0.40%    100.00% # Number of instructions issued per FU type, per thread (Count)
system.cpu1.statIssuedInstType_0::IprAccess            0      0.00%    100.00% # Number of instructions issued per FU type, per thread (Count)
system.cpu1.statIssuedInstType_0::InstPrefetch            0      0.00%    100.00% # Number of instructions issued per FU type, per thread (Count)
system.cpu1.statIssuedInstType_0::total       4450830                       # Number of instructions issued per FU type, per thread (Count)
system.cpu1.issueRate                        0.476966                       # Inst issue rate ((Count/Cycle))
system.cpu1.fuBusy                              63876                       # FU busy when requested (Count)
system.cpu1.fuBusyRate                       0.014351                       # FU busy rate (busy events/executed inst) ((Count/Count))
system.cpu1.intInstQueueReads                17043097                       # Number of integer instruction queue reads (Count)
system.cpu1.intInstQueueWrites                5686402                       # Number of integer instruction queue writes (Count)
system.cpu1.intInstQueueWakeupAccesses        4282297                       # Number of integer instruction queue wakeup accesses (Count)
system.cpu1.fpInstQueueReads                   227319                       # Number of floating instruction queue reads (Count)
system.cpu1.fpInstQueueWrites                  172619                       # Number of floating instruction queue writes (Count)
system.cpu1.fpInstQueueWakeupAccesses          108688                       # Number of floating instruction queue wakeup accesses (Count)
system.cpu1.vecInstQueueReads                       0                       # Number of vector instruction queue reads (Count)
system.cpu1.vecInstQueueWrites                      0                       # Number of vector instruction queue writes (Count)
system.cpu1.vecInstQueueWakeupAccesses              0                       # Number of vector instruction queue wakeup accesses (Count)
system.cpu1.intAluAccesses                    4381958                       # Number of integer alu accesses (Count)
system.cpu1.fpAluAccesses                      114623                       # Number of floating point alu accesses (Count)
system.cpu1.vecAluAccesses                          0                       # Number of vector alu accesses (Count)
system.cpu1.numInsts                          4420541                       # Number of executed instructions (Count)
system.cpu1.numLoadInsts                       629490                       # Number of load instructions executed (Count)
system.cpu1.numSquashedInsts                    30289                       # Number of squashed instructions skipped in execute (Count)
system.cpu1.numSwp                                  0                       # Number of swp insts executed (Count)
system.cpu1.numNop                                  0                       # Number of nop insts executed (Count)
system.cpu1.numRefs                            834239                       # Number of memory reference insts executed (Count)
system.cpu1.numBranches                        396240                       # Number of branches executed (Count)
[...]
system.ruby.network.ext_out_link_utilization      4200700                       (Unspecified)
system.ruby.network.flit_network_latency | 80014478000                       |209184144500                       | 19566024500                       (Unspecified)
system.ruby.network.flit_queueing_latency |  2161320000                       |  2169116500                       |   148304000                       (Unspecified)
system.ruby.network.flits_injected       |      997145     23.74%     23.74% |     2906952     69.20%     92.94% |      296609      7.06%    100.00% (Unspecified)
system.ruby.network.flits_injected::total      4200706                       (Unspecified)
system.ruby.network.flits_received       |      997145     23.74%     23.74% |     2906947     69.20%     92.94% |      296608      7.06%    100.00% (Unspecified)
system.ruby.network.flits_received::total      4200700                       (Unspecified)
system.ruby.network.int_link_utilization     10434516                       (Unspecified)
system.ruby.network.packet_network_latency | 59475389000                       | 69113674500                       | 19566024500                       (Unspecified)
system.ruby.network.packet_queueing_latency |  1772556000                       |   563664500                       |   148304000                       (Unspecified)
system.ruby.network.packets_injected     |      812189     42.28%     42.28% |      812188     42.28%     84.56% |      296609     15.44%    100.00% (Unspecified)
system.ruby.network.packets_injected::total      1920986                       (Unspecified)
system.ruby.network.packets_received     |      812189     42.28%     42.28% |      812187     42.28%     84.56% |      296608     15.44%    100.00% (Unspecified)
system.ruby.network.packets_received::total      1920984                       (Unspecified)
system.ruby.network.routers00.Var_1                 0                       (Unspecified)
system.ruby.network.routers00.Var_2                 0                       (Unspecified)
system.ruby.network.routers00.Var_3                 0                       (Unspecified)
system.ruby.network.routers00.all_counts            0                       (Unspecified)
system.ruby.network.routers00.buffer_reads       666259                       (Unspecified)
system.ruby.network.routers00.buffer_writes       666259                       (Unspecified)
system.ruby.network.routers00.crossbar_activity       666259                       (Unspecified)
system.ruby.network.routers00.detour_counts            0                       (Unspecified)
system.ruby.network.routers00.regular_var            0                       (Unspecified)
system.ruby.network.routers00.risk_counts            0                       (Unspecified)
system.ruby.network.routers00.sw_input_arbiter_activity       671007                       (Unspecified)
system.ruby.network.routers00.sw_output_arbiter_activity       666259                       (Unspecified)
system.ruby.network.routers01.Var_1                 0                       (Unspecified)
system.ruby.network.routers01.Var_2                 0                       (Unspecified)
system.ruby.network.routers01.Var_3                 0                       (Unspecified)
system.ruby.network.routers01.all_counts            0                       (Unspecified)
system.ruby.network.routers01.buffer_reads       932955                       (Unspecified)
system.ruby.network.routers01.buffer_writes       932955                       (Unspecified)
system.ruby.network.routers01.crossbar_activity       932955                       (Unspecified)
system.ruby.network.routers01.detour_counts            0                       (Unspecified)
system.ruby.network.routers01.regular_var            0                       (Unspecified)
system.ruby.network.routers01.risk_counts            0                       (Unspecified)
system.ruby.network.routers01.sw_input_arbiter_activity       943462                       (Unspecified)
system.ruby.network.routers01.sw_output_arbiter_activity       932955                       (Unspecified)
system.ruby.network.routers02.Var_1                 0                       (Unspecified)
system.ruby.network.routers02.Var_2                 0                       (Unspecified)
system.ruby.network.routers02.Var_3                 0                       (Unspecified)
system.ruby.network.routers02.all_counts            0                       (Unspecified)
system.ruby.network.routers02.buffer_reads       934690                       (Unspecified)
system.ruby.network.routers02.buffer_writes       934690                       (Unspecified)
system.ruby.network.routers02.crossbar_activity       934690                       (Unspecified)
system.ruby.network.routers02.detour_counts            0                       (Unspecified)
system.ruby.network.routers02.regular_var            0                       (Unspecified)
system.ruby.network.routers02.risk_counts            0                       (Unspecified)
system.ruby.network.routers02.sw_input_arbiter_activity       945062                       (Unspecified)
system.ruby.network.routers02.sw_output_arbiter_activity       934690                       (Unspecified)
system.ruby.network.routers03.Var_1                 0                       (Unspecified)
system.ruby.network.routers03.Var_2                 0                       (Unspecified)
system.ruby.network.routers03.Var_3                 0                       (Unspecified)
system.ruby.network.routers03.all_counts            0                       (Unspecified)
system.ruby.network.routers03.buffer_reads       656623                       (Unspecified)
system.ruby.network.routers03.buffer_writes       656623                       (Unspecified)
system.ruby.network.routers03.crossbar_activity       656623                       (Unspecified)
system.ruby.network.routers03.detour_counts            0                       (Unspecified)
system.ruby.network.routers03.regular_var            0                       (Unspecified)
system.ruby.network.routers03.risk_counts            0                       (Unspecified)
system.ruby.network.routers03.sw_input_arbiter_activity       660940                       (Unspecified)
system.ruby.network.routers03.sw_output_arbiter_activity       656623                       (Unspecified)
system.ruby.network.routers04.Var_1                 0                       (Unspecified)
system.ruby.network.routers04.Var_2                 0                       (Unspecified)
system.ruby.network.routers04.Var_3                 0                       (Unspecified)
system.ruby.network.routers04.all_counts            0                       (Unspecified)
system.ruby.network.routers04.buffer_reads       910358                       (Unspecified)
system.ruby.network.routers04.buffer_writes       910358                       (Unspecified)
system.ruby.network.routers04.crossbar_activity       910358                       (Unspecified)
system.ruby.network.routers04.detour_counts            0                       (Unspecified)
system.ruby.network.routers04.regular_var            0                       (Unspecified)
system.ruby.network.routers04.risk_counts            0                       (Unspecified)
system.ruby.network.routers04.sw_input_arbiter_activity       919728                       (Unspecified)
system.ruby.network.routers04.sw_output_arbiter_activity       910358                       (Unspecified)
system.ruby.network.routers05.Var_1                 0                       (Unspecified)
system.ruby.network.routers05.Var_2                 0                       (Unspecified)
system.ruby.network.routers05.Var_3                 0                       (Unspecified)
system.ruby.network.routers05.all_counts            0                       (Unspecified)
system.ruby.network.routers05.buffer_reads      1174703                       (Unspecified)
system.ruby.network.routers05.buffer_writes      1174703                       (Unspecified)
system.ruby.network.routers05.crossbar_activity      1174703                       (Unspecified)
system.ruby.network.routers05.detour_counts            0                       (Unspecified)
system.ruby.network.routers05.regular_var            0                       (Unspecified)
system.ruby.network.routers05.risk_counts            0                       (Unspecified)
system.ruby.network.routers05.sw_input_arbiter_activity      1190524                       (Unspecified)
system.ruby.network.routers05.sw_output_arbiter_activity      1174703                       (Unspecified)
system.ruby.network.routers06.Var_1                 0                       (Unspecified)
system.ruby.network.routers06.Var_2                 0                       (Unspecified)
system.ruby.network.routers06.Var_3                 0                       (Unspecified)
system.ruby.network.routers06.all_counts            0                       (Unspecified)
system.ruby.network.routers06.buffer_reads      1175520                       (Unspecified)
system.ruby.network.routers06.buffer_writes      1175520                       (Unspecified)
system.ruby.network.routers06.crossbar_activity      1175520                       (Unspecified)
system.ruby.network.routers06.detour_counts            0                       (Unspecified)
system.ruby.network.routers06.regular_var            0                       (Unspecified)
system.ruby.network.routers06.risk_counts            0                       (Unspecified)
system.ruby.network.routers06.sw_input_arbiter_activity      1191777                       (Unspecified)
system.ruby.network.routers06.sw_output_arbiter_activity      1175520                       (Unspecified)
system.ruby.network.routers07.Var_1                 0                       (Unspecified)
system.ruby.network.routers07.Var_2                 0                       (Unspecified)
system.ruby.network.routers07.Var_3                 0                       (Unspecified)
system.ruby.network.routers07.all_counts            0                       (Unspecified)
system.ruby.network.routers07.buffer_reads       901186                       (Unspecified)
system.ruby.network.routers07.buffer_writes       901186                       (Unspecified)
system.ruby.network.routers07.crossbar_activity       901186                       (Unspecified)
system.ruby.network.routers07.detour_counts            0                       (Unspecified)
system.ruby.network.routers07.regular_var            0                       (Unspecified)
system.ruby.network.routers07.risk_counts            0                       (Unspecified)
system.ruby.network.routers07.sw_input_arbiter_activity       910828                       (Unspecified)
system.ruby.network.routers07.sw_output_arbiter_activity       901186                       (Unspecified)
system.ruby.network.routers08.Var_1                 0                       (Unspecified)
system.ruby.network.routers08.Var_2                 0                       (Unspecified)
system.ruby.network.routers08.Var_3                 0                       (Unspecified)
system.ruby.network.routers08.all_counts            0                       (Unspecified)
system.ruby.network.routers08.buffer_reads       906191                       (Unspecified)
system.ruby.network.routers08.buffer_writes       906191                       (Unspecified)
system.ruby.network.routers08.crossbar_activity       906191                       (Unspecified)
system.ruby.network.routers08.detour_counts            0                       (Unspecified)
system.ruby.network.routers08.regular_var            0                       (Unspecified)
system.ruby.network.routers08.risk_counts            0                       (Unspecified)
system.ruby.network.routers08.sw_input_arbiter_activity       915521                       (Unspecified)
system.ruby.network.routers08.sw_output_arbiter_activity       906191                       (Unspecified)
system.ruby.network.routers09.Var_1                 0                       (Unspecified)
system.ruby.network.routers09.Var_2                 0                       (Unspecified)
system.ruby.network.routers09.Var_3                 0                       (Unspecified)
system.ruby.network.routers09.all_counts            0                       (Unspecified)
system.ruby.network.routers09.buffer_reads      1177115                       (Unspecified)
system.ruby.network.routers09.buffer_writes      1177115                       (Unspecified)
system.ruby.network.routers09.crossbar_activity      1177115                       (Unspecified)
system.ruby.network.routers09.detour_counts            0                       (Unspecified)
system.ruby.network.routers09.regular_var            0                       (Unspecified)
system.ruby.network.routers09.risk_counts            0                       (Unspecified)
system.ruby.network.routers09.sw_input_arbiter_activity      1192455                       (Unspecified)
system.ruby.network.routers09.sw_output_arbiter_activity      1177115                       (Unspecified)
system.ruby.network.routers10.Var_1                 0                       (Unspecified)
system.ruby.network.routers10.Var_2                 0                       (Unspecified)
system.ruby.network.routers10.Var_3                 0                       (Unspecified)
system.ruby.network.routers10.all_counts            0                       (Unspecified)
system.ruby.network.routers10.buffer_reads      1172142                       (Unspecified)
system.ruby.network.routers10.buffer_writes      1172142                       (Unspecified)
system.ruby.network.routers10.crossbar_activity      1172142                       (Unspecified)
system.ruby.network.routers10.detour_counts            0                       (Unspecified)
system.ruby.network.routers10.regular_var            0                       (Unspecified)
system.ruby.network.routers10.risk_counts            0                       (Unspecified)
system.ruby.network.routers10.sw_input_arbiter_activity      1187026                       (Unspecified)
system.ruby.network.routers10.sw_output_arbiter_activity      1172142                       (Unspecified)
system.ruby.network.routers11.Var_1                 0                       (Unspecified)
system.ruby.network.routers11.Var_2                 0                       (Unspecified)
system.ruby.network.routers11.Var_3                 0                       (Unspecified)
system.ruby.network.routers11.all_counts            0                       (Unspecified)
system.ruby.network.routers11.buffer_reads       893629                       (Unspecified)
system.ruby.network.routers11.buffer_writes       893629                       (Unspecified)
system.ruby.network.routers11.crossbar_activity       893629                       (Unspecified)
system.ruby.network.routers11.detour_counts            0                       (Unspecified)
system.ruby.network.routers11.regular_var            0                       (Unspecified)
system.ruby.network.routers11.risk_counts            0                       (Unspecified)
system.ruby.network.routers11.sw_input_arbiter_activity       902838                       (Unspecified)
system.ruby.network.routers11.sw_output_arbiter_activity       893629                       (Unspecified)
system.ruby.network.routers12.Var_1                 0                       (Unspecified)
system.ruby.network.routers12.Var_2                 0                       (Unspecified)
system.ruby.network.routers12.Var_3                 0                       (Unspecified)
system.ruby.network.routers12.all_counts            0                       (Unspecified)
system.ruby.network.routers12.buffer_reads       651783                       (Unspecified)
system.ruby.network.routers12.buffer_writes       651783                       (Unspecified)
system.ruby.network.routers12.crossbar_activity       651783                       (Unspecified)
system.ruby.network.routers12.detour_counts            0                       (Unspecified)
system.ruby.network.routers12.regular_var            0                       (Unspecified)
system.ruby.network.routers12.risk_counts            0                       (Unspecified)
system.ruby.network.routers12.sw_input_arbiter_activity       656317                       (Unspecified)
system.ruby.network.routers12.sw_output_arbiter_activity       651783                       (Unspecified)
system.ruby.network.routers13.Var_1                 0                       (Unspecified)
system.ruby.network.routers13.Var_2                 0                       (Unspecified)
system.ruby.network.routers13.Var_3                 0                       (Unspecified)
system.ruby.network.routers13.all_counts            0                       (Unspecified)
system.ruby.network.routers13.buffer_reads       919929                       (Unspecified)
system.ruby.network.routers13.buffer_writes       919929                       (Unspecified)
system.ruby.network.routers13.crossbar_activity       919929                       (Unspecified)
system.ruby.network.routers13.detour_counts            0                       (Unspecified)
system.ruby.network.routers13.regular_var            0                       (Unspecified)
system.ruby.network.routers13.risk_counts            0                       (Unspecified)
system.ruby.network.routers13.sw_input_arbiter_activity       929605                       (Unspecified)
system.ruby.network.routers13.sw_output_arbiter_activity       919929                       (Unspecified)
system.ruby.network.routers14.Var_1                 0                       (Unspecified)
system.ruby.network.routers14.Var_2                 0                       (Unspecified)
system.ruby.network.routers14.Var_3                 0                       (Unspecified)
system.ruby.network.routers14.all_counts            0                       (Unspecified)
system.ruby.network.routers14.buffer_reads       914208                       (Unspecified)
system.ruby.network.routers14.buffer_writes       914208                       (Unspecified)
system.ruby.network.routers14.crossbar_activity       914208                       (Unspecified)
system.ruby.network.routers14.detour_counts            0                       (Unspecified)
system.ruby.network.routers14.regular_var            0                       (Unspecified)
system.ruby.network.routers14.risk_counts            0                       (Unspecified)
system.ruby.network.routers14.sw_input_arbiter_activity       923874                       (Unspecified)
system.ruby.network.routers14.sw_output_arbiter_activity       914208                       (Unspecified)
system.ruby.network.routers15.Var_1                 0                       (Unspecified)
system.ruby.network.routers15.Var_2                 0                       (Unspecified)
system.ruby.network.routers15.Var_3                 0                       (Unspecified)
system.ruby.network.routers15.all_counts            0                       (Unspecified)
system.ruby.network.routers15.buffer_reads       647925                       (Unspecified)
system.ruby.network.routers15.buffer_writes       647925                       (Unspecified)
system.ruby.network.routers15.crossbar_activity       647925                       (Unspecified)
system.ruby.network.routers15.detour_counts            0                       (Unspecified)
system.ruby.network.routers15.regular_var            0                       (Unspecified)
system.ruby.network.routers15.risk_counts            0                       (Unspecified)
system.ruby.network.routers15.sw_input_arbiter_activity       652221                       (Unspecified)
system.ruby.network.routers15.sw_output_arbiter_activity       647925                       (Unspecified)

---------- End Simulation Statistics   ----------
