
---------- Begin Simulation Statistics ----------
simSeconds                                   0.005324                       # Number of seconds simulated (Second)
simTicks                                   5323678500                       # Number of ticks simulated (Tick)
finalTick                                  5323678500                       # Number of ticks from beginning of simulation (restored from checkpoints and never reset) (Tick)
simFreq                                  1000000000000                       # The number of ticks per simulated second ((Tick/Second))
hostSeconds                                    710.23                       # Real time elapsed on the host (Second)
hostTickRate                                  7495755                       # The number of ticks simulated per host second (ticks/s) ((Tick/Second))
hostMemory                                   11460452                       # Number of bytes of host memory used (Byte)
simInsts                                     35346016                       # Number of instructions simulated (Count)
simOps                                       60780928                       # Number of ops (including micro ops) simulated (Count)
hostInstRate                                    49767                       # Simulator instruction rate (inst/s) ((Count/Second))
hostOpRate                                      85580                       # Simulator op (including micro ops) rate (op/s) ((Count/Second))
system.clk_domain.clock                          1000                       # Clock period in ticks (Tick)
system.cpu0.numCycles                        10556424                       # Number of cpu cycles simulated (Cycle)
system.cpu0.numWorkItemsStarted                     0                       # Number of work items this cpu started (Count)
system.cpu0.numWorkItemsCompleted                   0                       # Number of work items this cpu completed (Count)
system.cpu0.instsAdded                        4841875                       # Number of instructions added to the IQ (excludes non-spec) (Count)
system.cpu0.nonSpecInstsAdded                    1087                       # Number of non-speculative instructions added to the IQ (Count)
system.cpu0.instsIssued                       4480593                       # Number of instructions issued (Count)
system.cpu0.squashedInstsIssued                  2861                       # Number of squashed instructions issued (Count)
system.cpu0.squashedInstsExamined             1044154                       # Number of squashed instructions iterated over during squash; mainly for profiling (Count)
system.cpu0.squashedOperandsExamined          2253933                       # Number of squashed operands that are examined and possibly removed from graph (Count)
system.cpu0.squashedNonSpecRemoved                234                       # Number of squashed non-spec instructions that were removed (Count)
system.cpu0.numIssuedDist::samples            9347836                       # Number of insts issued each cycle (Count)
system.cpu0.numIssuedDist::mean              0.479319                       # Number of insts issued each cycle (Count)
system.cpu0.numIssuedDist::stdev             1.402804                       # Number of insts issued each cycle (Count)
system.cpu0.numIssuedDist::underflows               0      0.00%      0.00% # Number of insts issued each cycle (Count)
system.cpu0.numIssuedDist::0                  8086609     86.51%     86.51% # Number of insts issued each cycle (Count)
system.cpu0.numIssuedDist::1                   202805      2.17%     88.68% # Number of insts issued each cycle (Count)
system.cpu0.numIssuedDist::2                   233445      2.50%     91.17% # Number of insts issued each cycle (Count)
system.cpu0.numIssuedDist::3                   245690      2.63%     93.80% # Number of insts issued each cycle (Count)
system.cpu0.numIssuedDist::4                   197880      2.12%     95.92% # Number of insts issued each cycle (Count)
system.cpu0.numIssuedDist::5                   150608      1.61%     97.53% # Number of insts issued each cycle (Count)
system.cpu0.numIssuedDist::6                   124750      1.33%     98.87% # Number of insts issued each cycle (Count)
system.cpu0.numIssuedDist::7                    67624      0.72%     99.59% # Number of insts issued each cycle (Count)
system.cpu0.numIssuedDist::8                    38425      0.41%    100.00% # Number of insts issued each cycle (Count)
system.cpu0.numIssuedDist::overflows                0      0.00%    100.00% # Number of insts issued each cycle (Count)
system.cpu0.numIssuedDist::min_value                0                       # Number of insts issued each cycle (Count)
system.cpu0.numIssuedDist::max_value                8                       # Number of insts issued each cycle (Count)
system.cpu0.numIssuedDist::total              9347836                       # Number of insts issued each cycle (Count)
system.cpu0.statFuBusy::No_OpClass                  0      0.00%      0.00% # attempts to use FU when none available (Count)
system.cpu0.statFuBusy::IntAlu                  41688     65.57%     65.57% # attempts to use FU when none available (Count)
system.cpu0.statFuBusy::IntMult                     0      0.00%     65.57% # attempts to use FU when none available (Count)
system.cpu0.statFuBusy::IntDiv                      0      0.00%     65.57% # attempts to use FU when none available (Count)
system.cpu0.statFuBusy::FloatAdd                    0      0.00%     65.57% # attempts to use FU when none available (Count)
system.cpu0.statFuBusy::FloatCmp                    0      0.00%     65.57% # attempts to use FU when none available (Count)
system.cpu0.statFuBusy::FloatCvt                    1      0.00%     65.57% # attempts to use FU when none available (Count)
system.cpu0.statFuBusy::FloatMult                   0      0.00%     65.57% # attempts to use FU when none available (Count)
system.cpu0.statFuBusy::FloatMultAcc                0      0.00%     65.57% # attempts to use FU when none available (Count)
system.cpu0.statFuBusy::FloatDiv                    0      0.00%     65.57% # attempts to use FU when none available (Count)
system.cpu0.statFuBusy::FloatMisc                   0      0.00%     65.57% # attempts to use FU when none available (Count)
system.cpu0.statFuBusy::FloatSqrt                   0      0.00%     65.57% # attempts to use FU when none available (Count)
system.cpu0.statFuBusy::SimdAdd                     0      0.00%     65.57% # attempts to use FU when none available (Count)
system.cpu0.statFuBusy::SimdAddAcc                  0      0.00%     65.57% # attempts to use FU when none available (Count)
system.cpu0.statFuBusy::SimdAlu                   125      0.20%     65.76% # attempts to use FU when none available (Count)
system.cpu0.statFuBusy::SimdCmp                     0      0.00%     65.76% # attempts to use FU when none available (Count)
system.cpu0.statFuBusy::SimdCvt                   119      0.19%     65.95% # attempts to use FU when none available (Count)
system.cpu0.statFuBusy::SimdMisc                    0      0.00%     65.95% # attempts to use FU when none available (Count)
system.cpu0.statFuBusy::SimdMult                    0      0.00%     65.95% # attempts to use FU when none available (Count)
system.cpu0.statFuBusy::SimdMultAcc                 0      0.00%     65.95% # attempts to use FU when none available (Count)
system.cpu0.statFuBusy::SimdShift                 134      0.21%     66.16% # attempts to use FU when none available (Count)
system.cpu0.statFuBusy::SimdShiftAcc                0      0.00%     66.16% # attempts to use FU when none available (Count)
system.cpu0.statFuBusy::SimdDiv                     0      0.00%     66.16% # attempts to use FU when none available (Count)
system.cpu0.statFuBusy::SimdSqrt                    0      0.00%     66.16% # attempts to use FU when none available (Count)
system.cpu0.statFuBusy::SimdFloatAdd                0      0.00%     66.16% # attempts to use FU when none available (Count)
system.cpu0.statFuBusy::SimdFloatAlu                0      0.00%     66.16% # attempts to use FU when none available (Count)
system.cpu0.statFuBusy::SimdFloatCmp                0      0.00%     66.16% # attempts to use FU when none available (Count)
system.cpu0.statFuBusy::SimdFloatCvt                0      0.00%     66.16% # attempts to use FU when none available (Count)
system.cpu0.statFuBusy::SimdFloatDiv                0      0.00%     66.16% # attempts to use FU when none available (Count)
system.cpu0.statFuBusy::SimdFloatMisc               0      0.00%     66.16% # attempts to use FU when none available (Count)
system.cpu0.statFuBusy::SimdFloatMult               0      0.00%     66.16% # attempts to use FU when none available (Count)
system.cpu0.statFuBusy::SimdFloatMultAcc            0      0.00%     66.16% # attempts to use FU when none available (Count)
system.cpu0.statFuBusy::SimdFloatSqrt               0      0.00%     66.16% # attempts to use FU when none available (Count)
system.cpu0.statFuBusy::SimdReduceAdd               0      0.00%     66.16% # attempts to use FU when none available (Count)
system.cpu0.statFuBusy::SimdReduceAlu               0      0.00%     66.16% # attempts to use FU when none available (Count)
system.cpu0.statFuBusy::SimdReduceCmp               0      0.00%     66.16% # attempts to use FU when none available (Count)
system.cpu0.statFuBusy::SimdFloatReduceAdd            0      0.00%     66.16% # attempts to use FU when none available (Count)
system.cpu0.statFuBusy::SimdFloatReduceCmp            0      0.00%     66.16% # attempts to use FU when none available (Count)
system.cpu0.statFuBusy::SimdAes                     0      0.00%     66.16% # attempts to use FU when none available (Count)
system.cpu0.statFuBusy::SimdAesMix                  0      0.00%     66.16% # attempts to use FU when none available (Count)
system.cpu0.statFuBusy::SimdSha1Hash                0      0.00%     66.16% # attempts to use FU when none available (Count)
system.cpu0.statFuBusy::SimdSha1Hash2               0      0.00%     66.16% # attempts to use FU when none available (Count)
system.cpu0.statFuBusy::SimdSha256Hash              0      0.00%     66.16% # attempts to use FU when none available (Count)
system.cpu0.statFuBusy::SimdSha256Hash2             0      0.00%     66.16% # attempts to use FU when none available (Count)
system.cpu0.statFuBusy::SimdShaSigma2               0      0.00%     66.16% # attempts to use FU when none available (Count)
system.cpu0.statFuBusy::SimdShaSigma3               0      0.00%     66.16% # attempts to use FU when none available (Count)
system.cpu0.statFuBusy::SimdPredAlu                 0      0.00%     66.16% # attempts to use FU when none available (Count)
system.cpu0.statFuBusy::MemRead                 11976     18.84%     85.00% # attempts to use FU when none available (Count)
system.cpu0.statFuBusy::MemWrite                 7703     12.12%     97.11% # attempts to use FU when none available (Count)
system.cpu0.statFuBusy::FloatMemRead             1397      2.20%     99.31% # attempts to use FU when none available (Count)
system.cpu0.statFuBusy::FloatMemWrite             438      0.69%    100.00% # attempts to use FU when none available (Count)
system.cpu0.statFuBusy::IprAccess                   0      0.00%    100.00% # attempts to use FU when none available (Count)
system.cpu0.statFuBusy::InstPrefetch                0      0.00%    100.00% # attempts to use FU when none available (Count)
system.cpu0.statIssuedInstType_0::No_OpClass        18364      0.41%      0.41% # Number of instructions issued per FU type, per thread (Count)
system.cpu0.statIssuedInstType_0::IntAlu      3517570     78.51%     78.92% # Number of instructions issued per FU type, per thread (Count)
system.cpu0.statIssuedInstType_0::IntMult           38      0.00%     78.92% # Number of instructions issued per FU type, per thread (Count)
system.cpu0.statIssuedInstType_0::IntDiv        38189      0.85%     79.77% # Number of instructions issued per FU type, per thread (Count)
system.cpu0.statIssuedInstType_0::FloatAdd         4307      0.10%     79.87% # Number of instructions issued per FU type, per thread (Count)
system.cpu0.statIssuedInstType_0::FloatCmp            0      0.00%     79.87% # Number of instructions issued per FU type, per thread (Count)
system.cpu0.statIssuedInstType_0::FloatCvt         1682      0.04%     79.90% # Number of instructions issued per FU type, per thread (Count)
system.cpu0.statIssuedInstType_0::FloatMult            0      0.00%     79.90% # Number of instructions issued per FU type, per thread (Count)
system.cpu0.statIssuedInstType_0::FloatMultAcc            0      0.00%     79.90% # Number of instructions issued per FU type, per thread (Count)
system.cpu0.statIssuedInstType_0::FloatDiv            0      0.00%     79.90% # Number of instructions issued per FU type, per thread (Count)
system.cpu0.statIssuedInstType_0::FloatMisc            0      0.00%     79.90% # Number of instructions issued per FU type, per thread (Count)
system.cpu0.statIssuedInstType_0::FloatSqrt            0      0.00%     79.90% # Number of instructions issued per FU type, per thread (Count)
system.cpu0.statIssuedInstType_0::SimdAdd         8186      0.18%     80.09% # Number of instructions issued per FU type, per thread (Count)
system.cpu0.statIssuedInstType_0::SimdAddAcc            0      0.00%     80.09% # Number of instructions issued per FU type, per thread (Count)
system.cpu0.statIssuedInstType_0::SimdAlu        16699      0.37%     80.46% # Number of instructions issued per FU type, per thread (Count)
system.cpu0.statIssuedInstType_0::SimdCmp            0      0.00%     80.46% # Number of instructions issued per FU type, per thread (Count)
system.cpu0.statIssuedInstType_0::SimdCvt        18198      0.41%     80.87% # Number of instructions issued per FU type, per thread (Count)
system.cpu0.statIssuedInstType_0::SimdMisc         8666      0.19%     81.06% # Number of instructions issued per FU type, per thread (Count)
system.cpu0.statIssuedInstType_0::SimdMult            0      0.00%     81.06% # Number of instructions issued per FU type, per thread (Count)
system.cpu0.statIssuedInstType_0::SimdMultAcc            0      0.00%     81.06% # Number of instructions issued per FU type, per thread (Count)
system.cpu0.statIssuedInstType_0::SimdShift         2438      0.05%     81.11% # Number of instructions issued per FU type, per thread (Count)
system.cpu0.statIssuedInstType_0::SimdShiftAcc            0      0.00%     81.11% # Number of instructions issued per FU type, per thread (Count)
system.cpu0.statIssuedInstType_0::SimdDiv            0      0.00%     81.11% # Number of instructions issued per FU type, per thread (Count)
system.cpu0.statIssuedInstType_0::SimdSqrt            0      0.00%     81.11% # Number of instructions issued per FU type, per thread (Count)
system.cpu0.statIssuedInstType_0::SimdFloatAdd            0      0.00%     81.11% # Number of instructions issued per FU type, per thread (Count)
system.cpu0.statIssuedInstType_0::SimdFloatAlu            0      0.00%     81.11% # Number of instructions issued per FU type, per thread (Count)
system.cpu0.statIssuedInstType_0::SimdFloatCmp            0      0.00%     81.11% # Number of instructions issued per FU type, per thread (Count)
system.cpu0.statIssuedInstType_0::SimdFloatCvt            0      0.00%     81.11% # Number of instructions issued per FU type, per thread (Count)
system.cpu0.statIssuedInstType_0::SimdFloatDiv            0      0.00%     81.11% # Number of instructions issued per FU type, per thread (Count)
system.cpu0.statIssuedInstType_0::SimdFloatMisc            0      0.00%     81.11% # Number of instructions issued per FU type, per thread (Count)
system.cpu0.statIssuedInstType_0::SimdFloatMult            0      0.00%     81.11% # Number of instructions issued per FU type, per thread (Count)
system.cpu0.statIssuedInstType_0::SimdFloatMultAcc            0      0.00%     81.11% # Number of instructions issued per FU type, per thread (Count)
system.cpu0.statIssuedInstType_0::SimdFloatSqrt            0      0.00%     81.11% # Number of instructions issued per FU type, per thread (Count)
system.cpu0.statIssuedInstType_0::SimdReduceAdd            0      0.00%     81.11% # Number of instructions issued per FU type, per thread (Count)
system.cpu0.statIssuedInstType_0::SimdReduceAlu            0      0.00%     81.11% # Number of instructions issued per FU type, per thread (Count)
system.cpu0.statIssuedInstType_0::SimdReduceCmp            0      0.00%     81.11% # Number of instructions issued per FU type, per thread (Count)
system.cpu0.statIssuedInstType_0::SimdFloatReduceAdd            0      0.00%     81.11% # Number of instructions issued per FU type, per thread (Count)
system.cpu0.statIssuedInstType_0::SimdFloatReduceCmp            0      0.00%     81.11% # Number of instructions issued per FU type, per thread (Count)
system.cpu0.statIssuedInstType_0::SimdAes            0      0.00%     81.11% # Number of instructions issued per FU type, per thread (Count)
system.cpu0.statIssuedInstType_0::SimdAesMix            0      0.00%     81.11% # Number of instructions issued per FU type, per thread (Count)
system.cpu0.statIssuedInstType_0::SimdSha1Hash            0      0.00%     81.11% # Number of instructions issued per FU type, per thread (Count)
system.cpu0.statIssuedInstType_0::SimdSha1Hash2            0      0.00%     81.11% # Number of instructions issued per FU type, per thread (Count)
system.cpu0.statIssuedInstType_0::SimdSha256Hash            0      0.00%     81.11% # Number of instructions issued per FU type, per thread (Count)
system.cpu0.statIssuedInstType_0::SimdSha256Hash2            0      0.00%     81.11% # Number of instructions issued per FU type, per thread (Count)
system.cpu0.statIssuedInstType_0::SimdShaSigma2            0      0.00%     81.11% # Number of instructions issued per FU type, per thread (Count)
system.cpu0.statIssuedInstType_0::SimdShaSigma3            0      0.00%     81.11% # Number of instructions issued per FU type, per thread (Count)
system.cpu0.statIssuedInstType_0::SimdPredAlu            0      0.00%     81.11% # Number of instructions issued per FU type, per thread (Count)
system.cpu0.statIssuedInstType_0::MemRead       605845     13.52%     94.63% # Number of instructions issued per FU type, per thread (Count)
system.cpu0.statIssuedInstType_0::MemWrite       189409      4.23%     98.86% # Number of instructions issued per FU type, per thread (Count)
system.cpu0.statIssuedInstType_0::FloatMemRead        33116      0.74%     99.60% # Number of instructions issued per FU type, per thread (Count)
system.cpu0.statIssuedInstType_0::FloatMemWrite        17886      0.40%    100.00% # Number of instructions issued per FU type, per thread (Count)
system.cpu0.statIssuedInstType_0::IprAccess            0      0.00%    100.00% # Number of instructions issued per FU type, per thread (Count)
system.cpu0.statIssuedInstType_0::InstPrefetch            0      0.00%    100.00% # Number of instructions issued per FU type, per thread (Count)
system.cpu0.statIssuedInstType_0::total       4480593                       # Number of instructions issued per FU type, per thread (Count)
system.cpu0.issueRate                        0.424442                       # Inst issue rate ((Count/Cycle))
system.cpu0.fuBusy                              63581                       # FU busy when requested (Count)
system.cpu0.fuBusyRate                       0.014190                       # FU busy rate (busy events/executed inst) ((Count/Count))
system.cpu0.intInstQueueReads                18148370                       # Number of integer instruction queue reads (Count)
system.cpu0.intInstQueueWrites                5715105                       # Number of integer instruction queue writes (Count)
system.cpu0.intInstQueueWakeupAccesses        4312264                       # Number of integer instruction queue wakeup accesses (Count)
system.cpu0.fpInstQueueReads                   227094                       # Number of floating instruction queue reads (Count)
system.cpu0.fpInstQueueWrites                  172153                       # Number of floating instruction queue writes (Count)
system.cpu0.fpInstQueueWakeupAccesses          108584                       # Number of floating instruction queue wakeup accesses (Count)
system.cpu0.vecInstQueueReads                       0                       # Number of vector instruction queue reads (Count)
system.cpu0.vecInstQueueWrites                      0                       # Number of vector instruction queue writes (Count)
system.cpu0.vecInstQueueWakeupAccesses              0                       # Number of vector instruction queue wakeup accesses (Count)
system.cpu0.intAluAccesses                    4411299                       # Number of integer alu accesses (Count)
system.cpu0.fpAluAccesses                      114511                       # Number of floating point alu accesses (Count)
system.cpu0.vecAluAccesses                          0                       # Number of vector alu accesses (Count)
system.cpu0.numInsts                          4450408                       # Number of executed instructions (Count)
system.cpu0.numLoadInsts                       631327                       # Number of load instructions executed (Count)
system.cpu0.numSquashedInsts                    30185                       # Number of squashed instructions skipped in execute (Count)
system.cpu0.numSwp                                  0                       # Number of swp insts executed (Count)
system.cpu0.numNop                                  0                       # Number of nop insts executed (Count)
system.cpu0.numRefs                            836630                       # Number of memory reference insts executed (Count)
system.cpu0.numBranches                        396481                       # Number of branches executed (Count)
system.cpu0.numStoreInsts                      205303                       # Number of stores executed (Count)
system.cpu0.numRate                          0.421583                       # Inst execution rate ((Count/Cycle))
system.cpu0.timesIdled                           2376                       # Number of times that the entire CPU went into an idle state and unscheduled itself (Count)
system.cpu0.idleCycles                        1208588                       # Total number of cycles that the CPU has spent unscheduled due to idling (Cycle)
system.cpu0.committedInsts                    2209126                       # Number of Instructions Simulated (Count)
system.cpu0.committedOps                      3798808                       # Number of Ops (including micro ops) Simulated (Count)
system.cpu0.cpi                              4.778552                       # CPI: Cycles Per Instruction ((Cycle/Count))
system.cpu0.totalCpi                         4.778552                       # CPI: Total CPI of All Threads ((Cycle/Count))
system.cpu0.ipc                              0.209268                       # IPC: Instructions Per Cycle ((Count/Cycle))
system.cpu0.totalIpc                         0.209268                       # IPC: Total IPC of All Threads ((Count/Cycle))
system.cpu0.intRegfileReads                   6078018                       # Number of integer regfile reads (Count)
system.cpu0.intRegfileWrites                  3468853                       # Number of integer regfile writes (Count)
system.cpu0.fpRegfileReads                     146924                       # Number of floating regfile reads (Count)
system.cpu0.fpRegfileWrites                     81731                       # Number of floating regfile writes (Count)
system.cpu0.ccRegfileReads                    2518433                       # number of cc regfile reads (Count)
system.cpu0.ccRegfileWrites                   2082553                       # number of cc regfile writes (Count)
system.cpu0.miscRegfileReads                  1674041                       # number of misc regfile reads (Count)
system.cpu0.miscRegfileWrites                     846                       # number of misc regfile writes (Count)
system.cpu0.MemDepUnit__0.insertedLoads        659048                       # Number of loads inserted to the mem dependence unit. (Count)
system.cpu0.MemDepUnit__0.insertedStores       217320                       # Number of stores inserted to the mem dependence unit. (Count)
system.cpu0.MemDepUnit__0.conflictingLoads        18544                       # Number of conflicting loads. (Count)
system.cpu0.MemDepUnit__0.conflictingStores         8952                       # Number of conflicting stores. (Count)
system.cpu0.MemDepUnit__1.insertedLoads             0                       # Number of loads inserted to the mem dependence unit. (Count)
system.cpu0.MemDepUnit__1.insertedStores            0                       # Number of stores inserted to the mem dependence unit. (Count)
system.cpu0.MemDepUnit__1.conflictingLoads            0                       # Number of conflicting loads. (Count)
system.cpu0.MemDepUnit__1.conflictingStores            0                       # Number of conflicting stores. (Count)
system.cpu0.MemDepUnit__2.insertedLoads             0                       # Number of loads inserted to the mem dependence unit. (Count)
system.cpu0.MemDepUnit__2.insertedStores            0                       # Number of stores inserted to the mem dependence unit. (Count)
system.cpu0.MemDepUnit__2.conflictingLoads            0                       # Number of conflicting loads. (Count)
system.cpu0.MemDepUnit__2.conflictingStores            0                       # Number of conflicting stores. (Count)
system.cpu0.MemDepUnit__3.insertedLoads             0                       # Number of loads inserted to the mem dependence unit. (Count)
system.cpu0.MemDepUnit__3.insertedStores            0                       # Number of stores inserted to the mem dependence unit. (Count)
system.cpu0.MemDepUnit__3.conflictingLoads            0                       # Number of conflicting loads. (Count)
system.cpu0.MemDepUnit__3.conflictingStores            0                       # Number of conflicting stores. (Count)
system.cpu0.branchPred.lookups                 512633                       # Number of BP lookups (Count)
system.cpu0.branchPred.condPredicted           454330                       # Number of conditional branches predicted (Count)
system.cpu0.branchPred.condIncorrect            17050                       # Number of conditional branches incorrect (Count)
system.cpu0.branchPred.BTBLookups              270703                       # Number of BTB lookups (Count)
system.cpu0.branchPred.BTBUpdates                8646                       # Number of BTB updates (Count)
system.cpu0.branchPred.BTBHits                 266614                       # Number of BTB hits (Count)
system.cpu0.branchPred.BTBHitRatio           0.984895                       # BTB Hit Ratio (Ratio)
system.cpu0.branchPred.RASUsed                  13386                       # Number of times the RAS was used to get a target. (Count)
system.cpu0.branchPred.RASIncorrect                 7                       # Number of incorrect RAS predictions. (Count)
system.cpu0.branchPred.indirectLookups           9880                       # Number of indirect predictor lookups. (Count)
system.cpu0.branchPred.indirectHits              5176                       # Number of indirect target hits. (Count)
system.cpu0.branchPred.indirectMisses            4704                       # Number of indirect misses. (Count)
system.cpu0.branchPred.indirectMispredicted         1182                       # Number of mispredicted indirect branches. (Count)
system.cpu0.commit.commitSquashedInsts        1035164                       # The number of squashed insts skipped by commit (Count)
system.cpu0.commit.commitNonSpecStalls            853                       # The number of times commit has been forced to stall to communicate backwards (Count)
system.cpu0.commit.branchMispredicts            18557                       # The number of times a branch was mispredicted (Count)
system.cpu0.commit.numCommittedDist::samples      9197547                       # Number of insts commited each cycle (Count)
system.cpu0.commit.numCommittedDist::mean     0.413024                       # Number of insts commited each cycle (Count)
system.cpu0.commit.numCommittedDist::stdev     1.464806                       # Number of insts commited each cycle (Count)
system.cpu0.commit.numCommittedDist::underflows            0      0.00%      0.00% # Number of insts commited each cycle (Count)
system.cpu0.commit.numCommittedDist::0        8221550     89.39%     89.39% # Number of insts commited each cycle (Count)
system.cpu0.commit.numCommittedDist::1         236913      2.58%     91.96% # Number of insts commited each cycle (Count)
system.cpu0.commit.numCommittedDist::2          97525      1.06%     93.02% # Number of insts commited each cycle (Count)
system.cpu0.commit.numCommittedDist::3         244645      2.66%     95.68% # Number of insts commited each cycle (Count)
system.cpu0.commit.numCommittedDist::4          47439      0.52%     96.20% # Number of insts commited each cycle (Count)
system.cpu0.commit.numCommittedDist::5         101657      1.11%     97.31% # Number of insts commited each cycle (Count)
system.cpu0.commit.numCommittedDist::6          14634      0.16%     97.46% # Number of insts commited each cycle (Count)
system.cpu0.commit.numCommittedDist::7          18407      0.20%     97.66% # Number of insts commited each cycle (Count)
system.cpu0.commit.numCommittedDist::8         214777      2.34%    100.00% # Number of insts commited each cycle (Count)
system.cpu0.commit.numCommittedDist::overflows            0      0.00%    100.00% # Number of insts commited each cycle (Count)
system.cpu0.commit.numCommittedDist::min_value            0                       # Number of insts commited each cycle (Count)
system.cpu0.commit.numCommittedDist::max_value            8                       # Number of insts commited each cycle (Count)
system.cpu0.commit.numCommittedDist::total      9197547                       # Number of insts commited each cycle (Count)
system.cpu0.commit.instsCommitted             2209126                       # Number of instructions committed (Count)
system.cpu0.commit.opsCommitted               3798808                       # Number of ops (including micro ops) committed (Count)
system.cpu0.commit.memRefs                     701874                       # Number of memory references committed (Count)
system.cpu0.commit.loads                       521998                       # Number of loads committed (Count)
system.cpu0.commit.amos                             0                       # Number of atomic instructions committed (Count)
system.cpu0.commit.membars                          2                       # Number of memory barriers committed (Count)
system.cpu0.commit.branches                    360729                       # Number of branches committed (Count)
system.cpu0.commit.vectorInstructions               0                       # Number of committed Vector instructions. (Count)
system.cpu0.commit.floating                     80355                       # Number of committed floating point instructions. (Count)
system.cpu0.commit.integer                    3740074                       # Number of committed integer instructions. (Count)
system.cpu0.commit.functionCalls                 9592                       # Number of function calls committed. (Count)
system.cpu0.commit.committedInstType_0::No_OpClass        10772      0.28%      0.28% # Class of committed instruction (Count)
system.cpu0.commit.committedInstType_0::IntAlu      3005760     79.12%     79.41% # Class of committed instruction (Count)
system.cpu0.commit.committedInstType_0::IntMult           29      0.00%     79.41% # Class of committed instruction (Count)
system.cpu0.commit.committedInstType_0::IntDiv        35830      0.94%     80.35% # Class of committed instruction (Count)
system.cpu0.commit.committedInstType_0::FloatAdd         3175      0.08%     80.43% # Class of committed instruction (Count)
system.cpu0.commit.committedInstType_0::FloatCmp            0      0.00%     80.43% # Class of committed instruction (Count)
system.cpu0.commit.committedInstType_0::FloatCvt         1504      0.04%     80.47% # Class of committed instruction (Count)
system.cpu0.commit.committedInstType_0::FloatMult            0      0.00%     80.47% # Class of committed instruction (Count)
system.cpu0.commit.committedInstType_0::FloatMultAcc            0      0.00%     80.47% # Class of committed instruction (Count)
system.cpu0.commit.committedInstType_0::FloatDiv            0      0.00%     80.47% # Class of committed instruction (Count)
system.cpu0.commit.committedInstType_0::FloatMisc            0      0.00%     80.47% # Class of committed instruction (Count)
system.cpu0.commit.committedInstType_0::FloatSqrt            0      0.00%     80.47% # Class of committed instruction (Count)
system.cpu0.commit.committedInstType_0::SimdAdd         6610      0.17%     80.65% # Class of committed instruction (Count)
system.cpu0.commit.committedInstType_0::SimdAddAcc            0      0.00%     80.65% # Class of committed instruction (Count)
system.cpu0.commit.committedInstType_0::SimdAlu        11924      0.31%     80.96% # Class of committed instruction (Count)
system.cpu0.commit.committedInstType_0::SimdCmp            0      0.00%     80.96% # Class of committed instruction (Count)
system.cpu0.commit.committedInstType_0::SimdCvt        12916      0.34%     81.30% # Class of committed instruction (Count)
system.cpu0.commit.committedInstType_0::SimdMisc         7061      0.19%     81.49% # Class of committed instruction (Count)
system.cpu0.commit.committedInstType_0::SimdMult            0      0.00%     81.49% # Class of committed instruction (Count)
system.cpu0.commit.committedInstType_0::SimdMultAcc            0      0.00%     81.49% # Class of committed instruction (Count)
system.cpu0.commit.committedInstType_0::SimdShift         1353      0.04%     81.52% # Class of committed instruction (Count)
system.cpu0.commit.committedInstType_0::SimdShiftAcc            0      0.00%     81.52% # Class of committed instruction (Count)
system.cpu0.commit.committedInstType_0::SimdDiv            0      0.00%     81.52% # Class of committed instruction (Count)
system.cpu0.commit.committedInstType_0::SimdSqrt            0      0.00%     81.52% # Class of committed instruction (Count)
system.cpu0.commit.committedInstType_0::SimdFloatAdd            0      0.00%     81.52% # Class of committed instruction (Count)
system.cpu0.commit.committedInstType_0::SimdFloatAlu            0      0.00%     81.52% # Class of committed instruction (Count)
system.cpu0.commit.committedInstType_0::SimdFloatCmp            0      0.00%     81.52% # Class of committed instruction (Count)
system.cpu0.commit.committedInstType_0::SimdFloatCvt            0      0.00%     81.52% # Class of committed instruction (Count)
system.cpu0.commit.committedInstType_0::SimdFloatDiv            0      0.00%     81.52% # Class of committed instruction (Count)
system.cpu0.commit.committedInstType_0::SimdFloatMisc            0      0.00%     81.52% # Class of committed instruction (Count)
system.cpu0.commit.committedInstType_0::SimdFloatMult            0      0.00%     81.52% # Class of committed instruction (Count)
system.cpu0.commit.committedInstType_0::SimdFloatMultAcc            0      0.00%     81.52% # Class of committed instruction (Count)
system.cpu0.commit.committedInstType_0::SimdFloatSqrt            0      0.00%     81.52% # Class of committed instruction (Count)
system.cpu0.commit.committedInstType_0::SimdReduceAdd            0      0.00%     81.52% # Class of committed instruction (Count)
system.cpu0.commit.committedInstType_0::SimdReduceAlu            0      0.00%     81.52% # Class of committed instruction (Count)
system.cpu0.commit.committedInstType_0::SimdReduceCmp            0      0.00%     81.52% # Class of committed instruction (Count)
system.cpu0.commit.committedInstType_0::SimdFloatReduceAdd            0      0.00%     81.52% # Class of committed instruction (Count)
system.cpu0.commit.committedInstType_0::SimdFloatReduceCmp            0      0.00%     81.52% # Class of committed instruction (Count)
system.cpu0.commit.committedInstType_0::SimdAes            0      0.00%     81.52% # Class of committed instruction (Count)
system.cpu0.commit.committedInstType_0::SimdAesMix            0      0.00%     81.52% # Class of committed instruction (Count)
system.cpu0.commit.committedInstType_0::SimdSha1Hash            0      0.00%     81.52% # Class of committed instruction (Count)
system.cpu0.commit.committedInstType_0::SimdSha1Hash2            0      0.00%     81.52% # Class of committed instruction (Count)
system.cpu0.commit.committedInstType_0::SimdSha256Hash            0      0.00%     81.52% # Class of committed instruction (Count)
system.cpu0.commit.committedInstType_0::SimdSha256Hash2            0      0.00%     81.52% # Class of committed instruction (Count)
system.cpu0.commit.committedInstType_0::SimdShaSigma2            0      0.00%     81.52% # Class of committed instruction (Count)
system.cpu0.commit.committedInstType_0::SimdShaSigma3            0      0.00%     81.52% # Class of committed instruction (Count)
system.cpu0.commit.committedInstType_0::SimdPredAlu            0      0.00%     81.52% # Class of committed instruction (Count)
system.cpu0.commit.committedInstType_0::MemRead       500969     13.19%     94.71% # Class of committed instruction (Count)
system.cpu0.commit.committedInstType_0::MemWrite       165962      4.37%     99.08% # Class of committed instruction (Count)
system.cpu0.commit.committedInstType_0::FloatMemRead        21029      0.55%     99.63% # Class of committed instruction (Count)
system.cpu0.commit.committedInstType_0::FloatMemWrite        13914      0.37%    100.00% # Class of committed instruction (Count)
system.cpu0.commit.committedInstType_0::IprAccess            0      0.00%    100.00% # Class of committed instruction (Count)
system.cpu0.commit.committedInstType_0::InstPrefetch            0      0.00%    100.00% # Class of committed instruction (Count)
system.cpu0.commit.committedInstType_0::total      3798808                       # Class of committed instruction (Count)
system.cpu0.commit.commitEligibleSamples       214777                       # number cycles where commit BW limit reached (Cycle)
system.cpu0.decode.idleCycles                  491030                       # Number of cycles decode is idle (Cycle)
system.cpu0.decode.blockedCycles              8120190                       # Number of cycles decode is blocked (Cycle)
system.cpu0.decode.runCycles                   515524                       # Number of cycles decode is running (Cycle)
system.cpu0.decode.unblockCycles               201819                       # Number of cycles decode is unblocking (Cycle)
system.cpu0.decode.squashCycles                 19273                       # Number of cycles decode is squashing (Cycle)
system.cpu0.decode.branchResolved              252792                       # Number of times decode resolved a branch (Count)
system.cpu0.decode.branchMispred                 1202                       # Number of times decode detected a branch misprediction (Count)
system.cpu0.decode.decodedInsts               5025883                       # Number of instructions handled by decode (Count)
system.cpu0.decode.squashedInsts                 5679                       # Number of squashed instructions handled by decode (Count)
system.cpu0.fetch.icacheStallCycles            470808                       # Number of cycles fetch is stalled on an Icache miss (Cycle)
system.cpu0.fetch.insts                       3048137                       # Number of instructions fetch has processed (Count)
system.cpu0.fetch.branches                     512633                       # Number of branches that fetch encountered (Count)
system.cpu0.fetch.predictedBranches            285176                       # Number of branches that fetch has predicted taken (Count)
system.cpu0.fetch.cycles                      8607140                       # Number of cycles fetch has run and was not squashing or blocked (Cycle)
system.cpu0.fetch.squashCycles                  40910                       # Number of cycles fetch has spent squashing (Cycle)
system.cpu0.fetch.miscStallCycles               16820                       # Number of cycles fetch has spent waiting on interrupts, or bad addresses, or out of MSHRs (Cycle)
system.cpu0.fetch.pendingTrapStallCycles        17717                       # Number of stall cycles due to pending traps (Cycle)
system.cpu0.fetch.icacheWaitRetryStallCycles       214896                       # Number of stall cycles due to full MSHR (Cycle)
system.cpu0.fetch.cacheLines                   266569                       # Number of cache lines fetched (Count)
system.cpu0.fetch.icacheSquashes                 4729                       # Number of outstanding Icache misses that were squashed (Count)
system.cpu0.fetch.nisnDist::samples           9347836                       # Number of instructions fetched each cycle (Total) (Count)
system.cpu0.fetch.nisnDist::mean             0.570262                       # Number of instructions fetched each cycle (Total) (Count)
system.cpu0.fetch.nisnDist::stdev            1.906317                       # Number of instructions fetched each cycle (Total) (Count)
system.cpu0.fetch.nisnDist::underflows              0      0.00%      0.00% # Number of instructions fetched each cycle (Total) (Count)
system.cpu0.fetch.nisnDist::0                 8465394     90.56%     90.56% # Number of instructions fetched each cycle (Total) (Count)
system.cpu0.fetch.nisnDist::1                   42517      0.45%     91.01% # Number of instructions fetched each cycle (Total) (Count)
system.cpu0.fetch.nisnDist::2                   41630      0.45%     91.46% # Number of instructions fetched each cycle (Total) (Count)
system.cpu0.fetch.nisnDist::3                   67046      0.72%     92.18% # Number of instructions fetched each cycle (Total) (Count)
system.cpu0.fetch.nisnDist::4                  138354      1.48%     93.66% # Number of instructions fetched each cycle (Total) (Count)
system.cpu0.fetch.nisnDist::5                   60361      0.65%     94.30% # Number of instructions fetched each cycle (Total) (Count)
system.cpu0.fetch.nisnDist::6                   34201      0.37%     94.67% # Number of instructions fetched each cycle (Total) (Count)
system.cpu0.fetch.nisnDist::7                   43288      0.46%     95.13% # Number of instructions fetched each cycle (Total) (Count)
system.cpu0.fetch.nisnDist::8                  455045      4.87%    100.00% # Number of instructions fetched each cycle (Total) (Count)
system.cpu0.fetch.nisnDist::overflows               0      0.00%    100.00% # Number of instructions fetched each cycle (Total) (Count)
system.cpu0.fetch.nisnDist::min_value               0                       # Number of instructions fetched each cycle (Total) (Count)
system.cpu0.fetch.nisnDist::max_value               8                       # Number of instructions fetched each cycle (Total) (Count)
system.cpu0.fetch.nisnDist::total             9347836                       # Number of instructions fetched each cycle (Total) (Count)
system.cpu0.fetch.branchRate                 0.048561                       # Number of branch fetches per cycle (Ratio)
system.cpu0.fetch.rate                       0.288747                       # Number of inst fetches per cycle ((Count/Cycle))
system.cpu0.iew.idleCycles                          0                       # Number of cycles IEW is idle (Cycle)
system.cpu0.iew.squashCycles                    19273                       # Number of cycles IEW is squashing (Cycle)
system.cpu0.iew.blockCycles                   5343429                       # Number of cycles IEW is blocking (Cycle)
system.cpu0.iew.unblockCycles                  161186                       # Number of cycles IEW is unblocking (Cycle)
system.cpu0.iew.dispatchedInsts               4842962                       # Number of instructions dispatched to IQ (Count)
system.cpu0.iew.dispSquashedInsts                 991                       # Number of squashed instructions skipped by dispatch (Count)
system.cpu0.iew.dispLoadInsts                  659048                       # Number of dispatched load instructions (Count)
system.cpu0.iew.dispStoreInsts                 217320                       # Number of dispatched store instructions (Count)
system.cpu0.iew.dispNonSpecInsts                  897                       # Number of dispatched non-speculative instructions (Count)
system.cpu0.iew.iqFullEvents                     7286                       # Number of times the IQ has become full, causing a stall (Count)
system.cpu0.iew.lsqFullEvents                  148763                       # Number of times the LSQ has become full, causing a stall (Count)
system.cpu0.iew.memOrderViolationEvents           148                       # Number of memory order violations (Count)
system.cpu0.iew.predictedTakenIncorrect          7859                       # Number of branches that were predicted taken incorrectly (Count)
system.cpu0.iew.predictedNotTakenIncorrect        12915                       # Number of branches that were predicted not taken incorrectly (Count)
system.cpu0.iew.branchMispredicts               20774                       # Number of branch mispredicts detected at execute (Count)
system.cpu0.iew.instsToCommit                 4432942                       # Cumulative count of insts sent to commit (Count)
system.cpu0.iew.writebackCount                4420848                       # Cumulative count of insts written-back (Count)
system.cpu0.iew.producerInst                  3568556                       # Number of instructions producing a value (Count)
system.cpu0.iew.consumerInst                  6585370                       # Number of instructions consuming a value (Count)
system.cpu0.iew.wbRate                       0.418783                       # Insts written-back per cycle ((Count/Cycle))
system.cpu0.iew.wbFanout                     0.541891                       # Average fanout of values written-back ((Count/Count))
system.cpu0.interrupts.clk_domain.clock          8000                       # Clock period in ticks (Tick)
system.cpu0.lsq0.forwLoads                      58949                       # Number of loads that had data forwarded from stores (Count)
system.cpu0.lsq0.squashedLoads                 137050                       # Number of loads squashed (Count)
system.cpu0.lsq0.ignoredResponses                  98                       # Number of memory responses ignored because the instruction is squashed (Count)
system.cpu0.lsq0.memOrderViolation                148                       # Number of memory ordering violations (Count)
system.cpu0.lsq0.squashedStores                 37444                       # Number of stores squashed (Count)
system.cpu0.lsq0.rescheduledLoads                  15                       # Number of loads that were rescheduled (Count)
system.cpu0.lsq0.blockedByCache                  2087                       # Number of times an access to memory failed due to the cache being blocked (Count)
system.cpu0.lsq0.loadToUse::samples            521920                       # Distribution of cycle latency between the first time a load is issued and its completion (Unspecified)
system.cpu0.lsq0.loadToUse::mean            66.186785                       # Distribution of cycle latency between the first time a load is issued and its completion (Unspecified)
system.cpu0.lsq0.loadToUse::stdev          223.622971                       # Distribution of cycle latency between the first time a load is issued and its completion (Unspecified)
system.cpu0.lsq0.loadToUse::0-9                476663     91.33%     91.33% # Distribution of cycle latency between the first time a load is issued and its completion (Unspecified)
system.cpu0.lsq0.loadToUse::10-19                  66      0.01%     91.34% # Distribution of cycle latency between the first time a load is issued and its completion (Unspecified)
system.cpu0.lsq0.loadToUse::20-29                  85      0.02%     91.36% # Distribution of cycle latency between the first time a load is issued and its completion (Unspecified)
system.cpu0.lsq0.loadToUse::30-39                  55      0.01%     91.37% # Distribution of cycle latency between the first time a load is issued and its completion (Unspecified)
system.cpu0.lsq0.loadToUse::40-49                  57      0.01%     91.38% # Distribution of cycle latency between the first time a load is issued and its completion (Unspecified)
system.cpu0.lsq0.loadToUse::50-59                  87      0.02%     91.40% # Distribution of cycle latency between the first time a load is issued and its completion (Unspecified)
system.cpu0.lsq0.loadToUse::60-69                  75      0.01%     91.41% # Distribution of cycle latency between the first time a load is issued and its completion (Unspecified)
system.cpu0.lsq0.loadToUse::70-79                  56      0.01%     91.42% # Distribution of cycle latency between the first time a load is issued and its completion (Unspecified)
system.cpu0.lsq0.loadToUse::80-89                  69      0.01%     91.43% # Distribution of cycle latency between the first time a load is issued and its completion (Unspecified)
system.cpu0.lsq0.loadToUse::90-99                  74      0.01%     91.45% # Distribution of cycle latency between the first time a load is issued and its completion (Unspecified)
system.cpu0.lsq0.loadToUse::100-109                76      0.01%     91.46% # Distribution of cycle latency between the first time a load is issued and its completion (Unspecified)
system.cpu0.lsq0.loadToUse::110-119                68      0.01%     91.48% # Distribution of cycle latency between the first time a load is issued and its completion (Unspecified)
system.cpu0.lsq0.loadToUse::120-129                82      0.02%     91.49% # Distribution of cycle latency between the first time a load is issued and its completion (Unspecified)
system.cpu0.lsq0.loadToUse::130-139                51      0.01%     91.50% # Distribution of cycle latency between the first time a load is issued and its completion (Unspecified)
system.cpu0.lsq0.loadToUse::140-149                70      0.01%     91.51% # Distribution of cycle latency between the first time a load is issued and its completion (Unspecified)
system.cpu0.lsq0.loadToUse::150-159                62      0.01%     91.53% # Distribution of cycle latency between the first time a load is issued and its completion (Unspecified)
system.cpu0.lsq0.loadToUse::160-169                50      0.01%     91.54% # Distribution of cycle latency between the first time a load is issued and its completion (Unspecified)
system.cpu0.lsq0.loadToUse::170-179               163      0.03%     91.57% # Distribution of cycle latency between the first time a load is issued and its completion (Unspecified)
system.cpu0.lsq0.loadToUse::180-189               597      0.11%     91.68% # Distribution of cycle latency between the first time a load is issued and its completion (Unspecified)
system.cpu0.lsq0.loadToUse::190-199                50      0.01%     91.69% # Distribution of cycle latency between the first time a load is issued and its completion (Unspecified)
system.cpu0.lsq0.loadToUse::200-209                63      0.01%     91.70% # Distribution of cycle latency between the first time a load is issued and its completion (Unspecified)
system.cpu0.lsq0.loadToUse::210-219                53      0.01%     91.71% # Distribution of cycle latency between the first time a load is issued and its completion (Unspecified)
system.cpu0.lsq0.loadToUse::220-229                68      0.01%     91.73% # Distribution of cycle latency between the first time a load is issued and its completion (Unspecified)
system.cpu0.lsq0.loadToUse::230-239               113      0.02%     91.75% # Distribution of cycle latency between the first time a load is issued and its completion (Unspecified)
system.cpu0.lsq0.loadToUse::240-249               586      0.11%     91.86% # Distribution of cycle latency between the first time a load is issued and its completion (Unspecified)
system.cpu0.lsq0.loadToUse::250-259                34      0.01%     91.87% # Distribution of cycle latency between the first time a load is issued and its completion (Unspecified)
system.cpu0.lsq0.loadToUse::260-269                36      0.01%     91.87% # Distribution of cycle latency between the first time a load is issued and its completion (Unspecified)
system.cpu0.lsq0.loadToUse::270-279                56      0.01%     91.88% # Distribution of cycle latency between the first time a load is issued and its completion (Unspecified)
system.cpu0.lsq0.loadToUse::280-289                75      0.01%     91.90% # Distribution of cycle latency between the first time a load is issued and its completion (Unspecified)
system.cpu0.lsq0.loadToUse::290-299               123      0.02%     91.92% # Distribution of cycle latency between the first time a load is issued and its completion (Unspecified)
system.cpu0.lsq0.loadToUse::overflows           42157      8.08%    100.00% # Distribution of cycle latency between the first time a load is issued and its completion (Unspecified)
system.cpu0.lsq0.loadToUse::min_value               2                       # Distribution of cycle latency between the first time a load is issued and its completion (Unspecified)
system.cpu0.lsq0.loadToUse::max_value            2539                       # Distribution of cycle latency between the first time a load is issued and its completion (Unspecified)
system.cpu0.lsq0.loadToUse::total              521920                       # Distribution of cycle latency between the first time a load is issued and its completion (Unspecified)
system.cpu0.mmu.dtb.rdAccesses                 625756                       # TLB accesses on read requests (Count)
system.cpu0.mmu.dtb.wrAccesses                 205313                       # TLB accesses on write requests (Count)
system.cpu0.mmu.dtb.rdMisses                     3164                       # TLB misses on read requests (Count)
system.cpu0.mmu.dtb.wrMisses                      452                       # TLB misses on write requests (Count)
system.cpu0.mmu.dtb.walker.power_state.pwrStateResidencyTicks::UNDEFINED   5323678500                       # Cumulative time (in ticks) in various power states (Tick)
system.cpu0.mmu.itb.rdAccesses                      0                       # TLB accesses on read requests (Count)
system.cpu0.mmu.itb.wrAccesses                 269340                       # TLB accesses on write requests (Count)
system.cpu0.mmu.itb.rdMisses                        0                       # TLB misses on read requests (Count)
system.cpu0.mmu.itb.wrMisses                     3329                       # TLB misses on write requests (Count)
system.cpu0.mmu.itb.walker.power_state.pwrStateResidencyTicks::UNDEFINED   5323678500                       # Cumulative time (in ticks) in various power states (Tick)
system.cpu0.power_state.pwrStateResidencyTicks::ON   5323678500                       # Cumulative time (in ticks) in various power states (Tick)
system.cpu0.rename.squashCycles                 19273                       # Number of cycles rename is squashing (Cycle)
system.cpu0.rename.idleCycles                  566816                       # Number of cycles rename is idle (Cycle)
system.cpu0.rename.blockCycles                7090988                       # Number of cycles rename is blocking (Cycle)
system.cpu0.rename.serializeStallCycles         23436                       # count of cycles rename stalled for serializing inst (Cycle)
system.cpu0.rename.runCycles                   632306                       # Number of cycles rename is running (Cycle)
system.cpu0.rename.unblockCycles              1015017                       # Number of cycles rename is unblocking (Cycle)
system.cpu0.rename.renamedInsts               4945944                       # Number of instructions processed by rename (Count)
system.cpu0.rename.ROBFullEvents               109416                       # Number of times rename has blocked due to ROB full (Count)
system.cpu0.rename.IQFullEvents                265905                       # Number of times rename has blocked due to IQ full (Count)
system.cpu0.rename.LQFullEvents                157572                       # Number of times rename has blocked due to LQ full (Count)
system.cpu0.rename.SQFullEvents                543161                       # Number of times rename has blocked due to SQ full (Count)
system.cpu0.rename.fullRegistersEvents           3110                       # Number of times there has been no free registers (Count)
system.cpu0.rename.renamedOperands           10506796                       # Number of destination operands rename has renamed (Count)
system.cpu0.rename.lookups                   18774336                       # Number of register rename lookups that rename has made (Count)
system.cpu0.rename.intLookups                 7004014                       # Number of integer rename lookups (Count)
system.cpu0.rename.fpLookups                   184221                       # Number of floating rename lookups (Count)
system.cpu0.rename.committedMaps              8158132                       # Number of HB maps that are committed (Count)
system.cpu0.rename.undoneMaps                 2348664                       # Number of HB maps that are undone due to squashing (Count)
system.cpu0.rename.serializing                    875                       # count of serializing insts renamed (Count)
system.cpu0.rename.tempSerializing                860                       # count of temporary serializing insts renamed (Count)
system.cpu0.rename.skidInsts                   924099                       # count of insts added to the skid buffer (Count)
system.cpu0.rob.reads                        13809007                       # The number of ROB reads (Count)
system.cpu0.rob.writes                        9818470                       # The number of ROB writes (Count)
system.cpu0.thread_0.numInsts                 2209126                       # Number of Instructions committed (Count)
system.cpu0.thread_0.numOps                   3798808                       # Number of Ops committed (Count)
system.cpu0.thread_0.numMemRefs                     0                       # Number of Memory References (Count)
system.cpu0.workload.numSyscalls                   63                       # Number of system calls (Count)
system.cpu1.numCycles                        10202671                       # Number of cpu cycles simulated (Cycle)
system.cpu1.numWorkItemsStarted                     0                       # Number of work items this cpu started (Count)
system.cpu1.numWorkItemsCompleted                   0                       # Number of work items this cpu completed (Count)
system.cpu1.instsAdded                        4842162                       # Number of instructions added to the IQ (excludes non-spec) (Count)
system.cpu1.nonSpecInstsAdded                    1093                       # Number of non-speculative instructions added to the IQ (Count)
system.cpu1.instsIssued                       4480951                       # Number of instructions issued (Count)
system.cpu1.squashedInstsIssued                  2890                       # Number of squashed instructions issued (Count)
system.cpu1.squashedInstsExamined             1044447                       # Number of squashed instructions iterated over during squash; mainly for profiling (Count)
system.cpu1.squashedOperandsExamined          2253308                       # Number of squashed operands that are examined and possibly removed from graph (Count)
system.cpu1.squashedNonSpecRemoved                240                       # Number of squashed non-spec instructions that were removed (Count)
system.cpu1.numIssuedDist::samples            9055796                       # Number of insts issued each cycle (Count)
system.cpu1.numIssuedDist::mean              0.494816                       # Number of insts issued each cycle (Count)
system.cpu1.numIssuedDist::stdev             1.422570                       # Number of insts issued each cycle (Count)
system.cpu1.numIssuedDist::underflows               0      0.00%      0.00% # Number of insts issued each cycle (Count)
system.cpu1.numIssuedDist::0                  7794553     86.07%     86.07% # Number of insts issued each cycle (Count)
system.cpu1.numIssuedDist::1                   202621      2.24%     88.31% # Number of insts issued each cycle (Count)
system.cpu1.numIssuedDist::2                   233418      2.58%     90.89% # Number of insts issued each cycle (Count)
system.cpu1.numIssuedDist::3                   245904      2.72%     93.60% # Number of insts issued each cycle (Count)
system.cpu1.numIssuedDist::4                   197890      2.19%     95.79% # Number of insts issued each cycle (Count)
system.cpu1.numIssuedDist::5                   150670      1.66%     97.45% # Number of insts issued each cycle (Count)
system.cpu1.numIssuedDist::6                   124724      1.38%     98.83% # Number of insts issued each cycle (Count)
system.cpu1.numIssuedDist::7                    67600      0.75%     99.58% # Number of insts issued each cycle (Count)
system.cpu1.numIssuedDist::8                    38416      0.42%    100.00% # Number of insts issued each cycle (Count)
system.cpu1.numIssuedDist::overflows                0      0.00%    100.00% # Number of insts issued each cycle (Count)
system.cpu1.numIssuedDist::min_value                0                       # Number of insts issued each cycle (Count)
system.cpu1.numIssuedDist::max_value                8                       # Number of insts issued each cycle (Count)
system.cpu1.numIssuedDist::total              9055796                       # Number of insts issued each cycle (Count)
system.cpu1.statFuBusy::No_OpClass                  0      0.00%      0.00% # attempts to use FU when none available (Count)
system.cpu1.statFuBusy::IntAlu                  41615     65.49%     65.49% # attempts to use FU when none available (Count)
system.cpu1.statFuBusy::IntMult                     0      0.00%     65.49% # attempts to use FU when none available (Count)
system.cpu1.statFuBusy::IntDiv                      0      0.00%     65.49% # attempts to use FU when none available (Count)
system.cpu1.statFuBusy::FloatAdd                    0      0.00%     65.49% # attempts to use FU when none available (Count)
system.cpu1.statFuBusy::FloatCmp                    0      0.00%     65.49% # attempts to use FU when none available (Count)
system.cpu1.statFuBusy::FloatCvt                    0      0.00%     65.49% # attempts to use FU when none available (Count)
system.cpu1.statFuBusy::FloatMult                   0      0.00%     65.49% # attempts to use FU when none available (Count)
system.cpu1.statFuBusy::FloatMultAcc                0      0.00%     65.49% # attempts to use FU when none available (Count)
system.cpu1.statFuBusy::FloatDiv                    0      0.00%     65.49% # attempts to use FU when none available (Count)
system.cpu1.statFuBusy::FloatMisc                   0      0.00%     65.49% # attempts to use FU when none available (Count)
system.cpu1.statFuBusy::FloatSqrt                   0      0.00%     65.49% # attempts to use FU when none available (Count)
system.cpu1.statFuBusy::SimdAdd                     4      0.01%     65.49% # attempts to use FU when none available (Count)
system.cpu1.statFuBusy::SimdAddAcc                  0      0.00%     65.49% # attempts to use FU when none available (Count)
system.cpu1.statFuBusy::SimdAlu                   121      0.19%     65.68% # attempts to use FU when none available (Count)
system.cpu1.statFuBusy::SimdCmp                     0      0.00%     65.68% # attempts to use FU when none available (Count)
system.cpu1.statFuBusy::SimdCvt                   128      0.20%     65.88% # attempts to use FU when none available (Count)
system.cpu1.statFuBusy::SimdMisc                    0      0.00%     65.88% # attempts to use FU when none available (Count)
system.cpu1.statFuBusy::SimdMult                    0      0.00%     65.88% # attempts to use FU when none available (Count)
system.cpu1.statFuBusy::SimdMultAcc                 0      0.00%     65.88% # attempts to use FU when none available (Count)
system.cpu1.statFuBusy::SimdShift                 131      0.21%     66.09% # attempts to use FU when none available (Count)
system.cpu1.statFuBusy::SimdShiftAcc                0      0.00%     66.09% # attempts to use FU when none available (Count)
system.cpu1.statFuBusy::SimdDiv                     0      0.00%     66.09% # attempts to use FU when none available (Count)
system.cpu1.statFuBusy::SimdSqrt                    0      0.00%     66.09% # attempts to use FU when none available (Count)
system.cpu1.statFuBusy::SimdFloatAdd                0      0.00%     66.09% # attempts to use FU when none available (Count)
system.cpu1.statFuBusy::SimdFloatAlu                0      0.00%     66.09% # attempts to use FU when none available (Count)
system.cpu1.statFuBusy::SimdFloatCmp                0      0.00%     66.09% # attempts to use FU when none available (Count)
system.cpu1.statFuBusy::SimdFloatCvt                0      0.00%     66.09% # attempts to use FU when none available (Count)
system.cpu1.statFuBusy::SimdFloatDiv                0      0.00%     66.09% # attempts to use FU when none available (Count)
system.cpu1.statFuBusy::SimdFloatMisc               0      0.00%     66.09% # attempts to use FU when none available (Count)
system.cpu1.statFuBusy::SimdFloatMult               0      0.00%     66.09% # attempts to use FU when none available (Count)
system.cpu1.statFuBusy::SimdFloatMultAcc            0      0.00%     66.09% # attempts to use FU when none available (Count)
system.cpu1.statFuBusy::SimdFloatSqrt               0      0.00%     66.09% # attempts to use FU when none available (Count)
system.cpu1.statFuBusy::SimdReduceAdd               0      0.00%     66.09% # attempts to use FU when none available (Count)
system.cpu1.statFuBusy::SimdReduceAlu               0      0.00%     66.09% # attempts to use FU when none available (Count)
system.cpu1.statFuBusy::SimdReduceCmp               0      0.00%     66.09% # attempts to use FU when none available (Count)
system.cpu1.statFuBusy::SimdFloatReduceAdd            0      0.00%     66.09% # attempts to use FU when none available (Count)
system.cpu1.statFuBusy::SimdFloatReduceCmp            0      0.00%     66.09% # attempts to use FU when none available (Count)
system.cpu1.statFuBusy::SimdAes                     0      0.00%     66.09% # attempts to use FU when none available (Count)
system.cpu1.statFuBusy::SimdAesMix                  0      0.00%     66.09% # attempts to use FU when none available (Count)
system.cpu1.statFuBusy::SimdSha1Hash                0      0.00%     66.09% # attempts to use FU when none available (Count)
system.cpu1.statFuBusy::SimdSha1Hash2               0      0.00%     66.09% # attempts to use FU when none available (Count)
system.cpu1.statFuBusy::SimdSha256Hash              0      0.00%     66.09% # attempts to use FU when none available (Count)
system.cpu1.statFuBusy::SimdSha256Hash2             0      0.00%     66.09% # attempts to use FU when none available (Count)
system.cpu1.statFuBusy::SimdShaSigma2               0      0.00%     66.09% # attempts to use FU when none available (Count)
system.cpu1.statFuBusy::SimdShaSigma3               0      0.00%     66.09% # attempts to use FU when none available (Count)
system.cpu1.statFuBusy::SimdPredAlu                 0      0.00%     66.09% # attempts to use FU when none available (Count)
system.cpu1.statFuBusy::MemRead                 11989     18.87%     84.96% # attempts to use FU when none available (Count)
system.cpu1.statFuBusy::MemWrite                 7712     12.14%     97.09% # attempts to use FU when none available (Count)
system.cpu1.statFuBusy::FloatMemRead             1403      2.21%     99.30% # attempts to use FU when none available (Count)
system.cpu1.statFuBusy::FloatMemWrite             445      0.70%    100.00% # attempts to use FU when none available (Count)
system.cpu1.statFuBusy::IprAccess                   0      0.00%    100.00% # attempts to use FU when none available (Count)
system.cpu1.statFuBusy::InstPrefetch                0      0.00%    100.00% # attempts to use FU when none available (Count)
system.cpu1.statIssuedInstType_0::No_OpClass        18257      0.41%      0.41% # Number of instructions issued per FU type, per thread (Count)
system.cpu1.statIssuedInstType_0::IntAlu      3517856     78.51%     78.91% # Number of instructions issued per FU type, per thread (Count)
system.cpu1.statIssuedInstType_0::IntMult           34      0.00%     78.92% # Number of instructions issued per FU type, per thread (Count)
system.cpu1.statIssuedInstType_0::IntDiv        38169      0.85%     79.77% # Number of instructions issued per FU type, per thread (Count)
system.cpu1.statIssuedInstType_0::FloatAdd         4291      0.10%     79.86% # Number of instructions issued per FU type, per thread (Count)
system.cpu1.statIssuedInstType_0::FloatCmp            0      0.00%     79.86% # Number of instructions issued per FU type, per thread (Count)
system.cpu1.statIssuedInstType_0::FloatCvt         1672      0.04%     79.90% # Number of instructions issued per FU type, per thread (Count)
system.cpu1.statIssuedInstType_0::FloatMult            0      0.00%     79.90% # Number of instructions issued per FU type, per thread (Count)
system.cpu1.statIssuedInstType_0::FloatMultAcc            0      0.00%     79.90% # Number of instructions issued per FU type, per thread (Count)
system.cpu1.statIssuedInstType_0::FloatDiv            0      0.00%     79.90% # Number of instructions issued per FU type, per thread (Count)
system.cpu1.statIssuedInstType_0::FloatMisc            0      0.00%     79.90% # Number of instructions issued per FU type, per thread (Count)
system.cpu1.statIssuedInstType_0::FloatSqrt            0      0.00%     79.90% # Number of instructions issued per FU type, per thread (Count)
system.cpu1.statIssuedInstType_0::SimdAdd         8184      0.18%     80.08% # Number of instructions issued per FU type, per thread (Count)
system.cpu1.statIssuedInstType_0::SimdAddAcc            0      0.00%     80.08% # Number of instructions issued per FU type, per thread (Count)
system.cpu1.statIssuedInstType_0::SimdAlu        16692      0.37%     80.46% # Number of instructions issued per FU type, per thread (Count)
system.cpu1.statIssuedInstType_0::SimdCmp            0      0.00%     80.46% # Number of instructions issued per FU type, per thread (Count)
system.cpu1.statIssuedInstType_0::SimdCvt        18214      0.41%     80.86% # Number of instructions issued per FU type, per thread (Count)
system.cpu1.statIssuedInstType_0::SimdMisc         8668      0.19%     81.06% # Number of instructions issued per FU type, per thread (Count)
system.cpu1.statIssuedInstType_0::SimdMult            0      0.00%     81.06% # Number of instructions issued per FU type, per thread (Count)
system.cpu1.statIssuedInstType_0::SimdMultAcc            0      0.00%     81.06% # Number of instructions issued per FU type, per thread (Count)
system.cpu1.statIssuedInstType_0::SimdShift         2446      0.05%     81.11% # Number of instructions issued per FU type, per thread (Count)
system.cpu1.statIssuedInstType_0::SimdShiftAcc            0      0.00%     81.11% # Number of instructions issued per FU type, per thread (Count)
system.cpu1.statIssuedInstType_0::SimdDiv            0      0.00%     81.11% # Number of instructions issued per FU type, per thread (Count)
system.cpu1.statIssuedInstType_0::SimdSqrt            0      0.00%     81.11% # Number of instructions issued per FU type, per thread (Count)
system.cpu1.statIssuedInstType_0::SimdFloatAdd            0      0.00%     81.11% # Number of instructions issued per FU type, per thread (Count)
system.cpu1.statIssuedInstType_0::SimdFloatAlu            0      0.00%     81.11% # Number of instructions issued per FU type, per thread (Count)
system.cpu1.statIssuedInstType_0::SimdFloatCmp            0      0.00%     81.11% # Number of instructions issued per FU type, per thread (Count)
system.cpu1.statIssuedInstType_0::SimdFloatCvt            0      0.00%     81.11% # Number of instructions issued per FU type, per thread (Count)
system.cpu1.statIssuedInstType_0::SimdFloatDiv            0      0.00%     81.11% # Number of instructions issued per FU type, per thread (Count)
system.cpu1.statIssuedInstType_0::SimdFloatMisc            0      0.00%     81.11% # Number of instructions issued per FU type, per thread (Count)
system.cpu1.statIssuedInstType_0::SimdFloatMult            0      0.00%     81.11% # Number of instructions issued per FU type, per thread (Count)
system.cpu1.statIssuedInstType_0::SimdFloatMultAcc            0      0.00%     81.11% # Number of instructions issued per FU type, per thread (Count)
system.cpu1.statIssuedInstType_0::SimdFloatSqrt            0      0.00%     81.11% # Number of instructions issued per FU type, per thread (Count)
system.cpu1.statIssuedInstType_0::SimdReduceAdd            0      0.00%     81.11% # Number of instructions issued per FU type, per thread (Count)
system.cpu1.statIssuedInstType_0::SimdReduceAlu            0      0.00%     81.11% # Number of instructions issued per FU type, per thread (Count)
system.cpu1.statIssuedInstType_0::SimdReduceCmp            0      0.00%     81.11% # Number of instructions issued per FU type, per thread (Count)
system.cpu1.statIssuedInstType_0::SimdFloatReduceAdd            0      0.00%     81.11% # Number of instructions issued per FU type, per thread (Count)
system.cpu1.statIssuedInstType_0::SimdFloatReduceCmp            0      0.00%     81.11% # Number of instructions issued per FU type, per thread (Count)
system.cpu1.statIssuedInstType_0::SimdAes            0      0.00%     81.11% # Number of instructions issued per FU type, per thread (Count)
system.cpu1.statIssuedInstType_0::SimdAesMix            0      0.00%     81.11% # Number of instructions issued per FU type, per thread (Count)
system.cpu1.statIssuedInstType_0::SimdSha1Hash            0      0.00%     81.11% # Number of instructions issued per FU type, per thread (Count)
system.cpu1.statIssuedInstType_0::SimdSha1Hash2            0      0.00%     81.11% # Number of instructions issued per FU type, per thread (Count)
system.cpu1.statIssuedInstType_0::SimdSha256Hash            0      0.00%     81.11% # Number of instructions issued per FU type, per thread (Count)
system.cpu1.statIssuedInstType_0::SimdSha256Hash2            0      0.00%     81.11% # Number of instructions issued per FU type, per thread (Count)
system.cpu1.statIssuedInstType_0::SimdShaSigma2            0      0.00%     81.11% # Number of instructions issued per FU type, per thread (Count)
system.cpu1.statIssuedInstType_0::SimdShaSigma3            0      0.00%     81.11% # Number of instructions issued per FU type, per thread (Count)
system.cpu1.statIssuedInstType_0::SimdPredAlu            0      0.00%     81.11% # Number of instructions issued per FU type, per thread (Count)
system.cpu1.statIssuedInstType_0::MemRead       605925     13.52%     94.63% # Number of instructions issued per FU type, per thread (Count)
system.cpu1.statIssuedInstType_0::MemWrite       189476      4.23%     98.86% # Number of instructions issued per FU type, per thread (Count)
system.cpu1.statIssuedInstType_0::FloatMemRead        33131      0.74%     99.60% # Number of instructions issued per FU type, per thread (Count)
system.cpu1.statIssuedInstType_0::FloatMemWrite        17936      0.40%    100.00% # Number of instructions issued per FU type, per thread (Count)
system.cpu1.statIssuedInstType_0::IprAccess            0      0.00%    100.00% # Number of instructions issued per FU type, per thread (Count)
system.cpu1.statIssuedInstType_0::InstPrefetch            0      0.00%    100.00% # Number of instructions issued per FU type, per thread (Count)
system.cpu1.statIssuedInstType_0::total       4480951                       # Number of instructions issued per FU type, per thread (Count)
system.cpu1.issueRate                        0.439194                       # Inst issue rate ((Count/Cycle))
system.cpu1.fuBusy                              63548                       # FU busy when requested (Count)
system.cpu1.fuBusyRate                       0.014182                       # FU busy rate (busy events/executed inst) ((Count/Count))
system.cpu1.intInstQueueReads                17856935                       # Number of integer instruction queue reads (Count)
system.cpu1.intInstQueueWrites                5715517                       # Number of integer instruction queue writes (Count)
system.cpu1.intInstQueueWakeupAccesses        4312666                       # Number of integer instruction queue wakeup accesses (Count)
system.cpu1.fpInstQueueReads                   227201                       # Number of floating instruction queue reads (Count)
system.cpu1.fpInstQueueWrites                  172323                       # Number of floating instruction queue writes (Count)
system.cpu1.fpInstQueueWakeupAccesses          108639                       # Number of floating instruction queue wakeup accesses (Count)
system.cpu1.vecInstQueueReads                       0                       # Number of vector instruction queue reads (Count)
system.cpu1.vecInstQueueWrites                      0                       # Number of vector instruction queue writes (Count)
system.cpu1.vecInstQueueWakeupAccesses              0                       # Number of vector instruction queue wakeup accesses (Count)
system.cpu1.intAluAccesses                    4411674                       # Number of integer alu accesses (Count)
system.cpu1.fpAluAccesses                      114568                       # Number of floating point alu accesses (Count)
system.cpu1.vecAluAccesses                          0                       # Number of vector alu accesses (Count)
system.cpu1.numInsts                          4450690                       # Number of executed instructions (Count)
system.cpu1.numLoadInsts                       631430                       # Number of load instructions executed (Count)
system.cpu1.numSquashedInsts                    30261                       # Number of squashed instructions skipped in execute (Count)
system.cpu1.numSwp                                  0                       # Number of swp insts executed (Count)
system.cpu1.numNop                                  0                       # Number of nop insts executed (Count)
system.cpu1.numRefs                            836831                       # Number of memory reference insts executed (Count)
system.cpu1.numBranches                        396499                       # Number of branches executed (Count)
[...]
system.ruby.network.ext_out_link_utilization      4195698                       (Unspecified)
system.ruby.network.flit_network_latency |105349937500                       |208601674000                       | 28880716500                       (Unspecified)
system.ruby.network.flit_queueing_latency |  2136097000                       |  1936708000                       |   148048000                       (Unspecified)
system.ruby.network.flits_injected       |      995700     23.73%     23.73% |     2903907     69.21%     92.94% |      296097      7.06%    100.00% (Unspecified)
system.ruby.network.flits_injected::total      4195704                       (Unspecified)
system.ruby.network.flits_received       |      995700     23.73%     23.73% |     2903902     69.21%     92.94% |      296096      7.06%    100.00% (Unspecified)
system.ruby.network.flits_received::total      4195698                       (Unspecified)
system.ruby.network.int_link_utilization     12734336                       (Unspecified)
system.ruby.network.packet_network_latency | 78940199000                       | 68961949000                       | 28880716500                       (Unspecified)
system.ruby.network.packet_queueing_latency |  1755033000                       |   514960000                       |   148048000                       (Unspecified)
system.ruby.network.packets_injected     |      811172     42.28%     42.28% |      811171     42.28%     84.57% |      296097     15.43%    100.00% (Unspecified)
system.ruby.network.packets_injected::total      1918440                       (Unspecified)
system.ruby.network.packets_received     |      811172     42.28%     42.28% |      811170     42.28%     84.57% |      296096     15.43%    100.00% (Unspecified)
system.ruby.network.packets_received::total      1918438                       (Unspecified)
system.ruby.network.routers00.Var_1                 0                       (Unspecified)
system.ruby.network.routers00.Var_2                 0                       (Unspecified)
system.ruby.network.routers00.Var_3                 0                       (Unspecified)
system.ruby.network.routers00.all_counts            0                       (Unspecified)
system.ruby.network.routers00.buffer_reads       752108                       (Unspecified)
system.ruby.network.routers00.buffer_writes       752108                       (Unspecified)
system.ruby.network.routers00.crossbar_activity       752108                       (Unspecified)
system.ruby.network.routers00.detour_counts        53488                       (Unspecified)
system.ruby.network.routers00.regular_var            0                       (Unspecified)
system.ruby.network.routers00.risk_counts            0                       (Unspecified)
system.ruby.network.routers00.sw_input_arbiter_activity       757881                       (Unspecified)
system.ruby.network.routers00.sw_output_arbiter_activity       752108                       (Unspecified)
system.ruby.network.routers01.Var_1                 0                       (Unspecified)
system.ruby.network.routers01.Var_2                 0                       (Unspecified)
system.ruby.network.routers01.Var_3                 0                       (Unspecified)
system.ruby.network.routers01.all_counts            0                       (Unspecified)
system.ruby.network.routers01.buffer_reads      1081798                       (Unspecified)
system.ruby.network.routers01.buffer_writes      1081798                       (Unspecified)
system.ruby.network.routers01.crossbar_activity      1081798                       (Unspecified)
system.ruby.network.routers01.detour_counts        53608                       (Unspecified)
system.ruby.network.routers01.regular_var            0                       (Unspecified)
system.ruby.network.routers01.risk_counts            0                       (Unspecified)
system.ruby.network.routers01.sw_input_arbiter_activity      1094281                       (Unspecified)
system.ruby.network.routers01.sw_output_arbiter_activity      1081798                       (Unspecified)
system.ruby.network.routers02.Var_1                 0                       (Unspecified)
system.ruby.network.routers02.Var_2                 0                       (Unspecified)
system.ruby.network.routers02.Var_3                 0                       (Unspecified)
system.ruby.network.routers02.all_counts            0                       (Unspecified)
system.ruby.network.routers02.buffer_reads      1083122                       (Unspecified)
system.ruby.network.routers02.buffer_writes      1083122                       (Unspecified)
system.ruby.network.routers02.crossbar_activity      1083122                       (Unspecified)
system.ruby.network.routers02.detour_counts        53515                       (Unspecified)
system.ruby.network.routers02.regular_var            0                       (Unspecified)
system.ruby.network.routers02.risk_counts            0                       (Unspecified)
system.ruby.network.routers02.sw_input_arbiter_activity      1095710                       (Unspecified)
system.ruby.network.routers02.sw_output_arbiter_activity      1083122                       (Unspecified)
system.ruby.network.routers03.Var_1                 0                       (Unspecified)
system.ruby.network.routers03.Var_2                 0                       (Unspecified)
system.ruby.network.routers03.Var_3                 0                       (Unspecified)
system.ruby.network.routers03.all_counts            0                       (Unspecified)
system.ruby.network.routers03.buffer_reads       743778                       (Unspecified)
system.ruby.network.routers03.buffer_writes       743778                       (Unspecified)
system.ruby.network.routers03.crossbar_activity       743778                       (Unspecified)
system.ruby.network.routers03.detour_counts        53570                       (Unspecified)
system.ruby.network.routers03.regular_var            0                       (Unspecified)
system.ruby.network.routers03.risk_counts            0                       (Unspecified)
system.ruby.network.routers03.sw_input_arbiter_activity       749148                       (Unspecified)
system.ruby.network.routers03.sw_output_arbiter_activity       743778                       (Unspecified)
system.ruby.network.routers04.Var_1                 0                       (Unspecified)
system.ruby.network.routers04.Var_2                 0                       (Unspecified)
system.ruby.network.routers04.Var_3                 0                       (Unspecified)
system.ruby.network.routers04.all_counts            0                       (Unspecified)
system.ruby.network.routers04.buffer_reads      1048700                       (Unspecified)
system.ruby.network.routers04.buffer_writes      1048700                       (Unspecified)
system.ruby.network.routers04.crossbar_activity      1048700                       (Unspecified)
system.ruby.network.routers04.detour_counts        53622                       (Unspecified)
system.ruby.network.routers04.regular_var            0                       (Unspecified)
system.ruby.network.routers04.risk_counts            0                       (Unspecified)
system.ruby.network.routers04.sw_input_arbiter_activity      1060061                       (Unspecified)
system.ruby.network.routers04.sw_output_arbiter_activity      1048700                       (Unspecified)
system.ruby.network.routers05.Var_1                 0                       (Unspecified)
system.ruby.network.routers05.Var_2                 0                       (Unspecified)
system.ruby.network.routers05.Var_3                 0                       (Unspecified)
system.ruby.network.routers05.all_counts            0                       (Unspecified)
system.ruby.network.routers05.buffer_reads      1373590                       (Unspecified)
system.ruby.network.routers05.buffer_writes      1373590                       (Unspecified)
system.ruby.network.routers05.crossbar_activity      1373590                       (Unspecified)
system.ruby.network.routers05.detour_counts        53633                       (Unspecified)
system.ruby.network.routers05.regular_var            0                       (Unspecified)
system.ruby.network.routers05.risk_counts            0                       (Unspecified)
system.ruby.network.routers05.sw_input_arbiter_activity      1391957                       (Unspecified)
system.ruby.network.routers05.sw_output_arbiter_activity      1373590                       (Unspecified)
system.ruby.network.routers06.Var_1                 0                       (Unspecified)
system.ruby.network.routers06.Var_2                 0                       (Unspecified)
system.ruby.network.routers06.Var_3                 0                       (Unspecified)
system.ruby.network.routers06.all_counts            0                       (Unspecified)
system.ruby.network.routers06.buffer_reads      1373401                       (Unspecified)
system.ruby.network.routers06.buffer_writes      1373401                       (Unspecified)
system.ruby.network.routers06.crossbar_activity      1373401                       (Unspecified)
system.ruby.network.routers06.detour_counts        53584                       (Unspecified)
system.ruby.network.routers06.regular_var            0                       (Unspecified)
system.ruby.network.routers06.risk_counts            0                       (Unspecified)
system.ruby.network.routers06.sw_input_arbiter_activity      1391818                       (Unspecified)
system.ruby.network.routers06.sw_output_arbiter_activity      1373401                       (Unspecified)
system.ruby.network.routers07.Var_1                 0                       (Unspecified)
system.ruby.network.routers07.Var_2                 0                       (Unspecified)
system.ruby.network.routers07.Var_3                 0                       (Unspecified)
system.ruby.network.routers07.all_counts            0                       (Unspecified)
system.ruby.network.routers07.buffer_reads      1041262                       (Unspecified)
system.ruby.network.routers07.buffer_writes      1041262                       (Unspecified)
system.ruby.network.routers07.crossbar_activity      1041262                       (Unspecified)
system.ruby.network.routers07.detour_counts        53585                       (Unspecified)
system.ruby.network.routers07.regular_var            0                       (Unspecified)
system.ruby.network.routers07.risk_counts            0                       (Unspecified)
system.ruby.network.routers07.sw_input_arbiter_activity      1052906                       (Unspecified)
system.ruby.network.routers07.sw_output_arbiter_activity      1041262                       (Unspecified)
system.ruby.network.routers08.Var_1                 0                       (Unspecified)
system.ruby.network.routers08.Var_2                 0                       (Unspecified)
system.ruby.network.routers08.Var_3                 0                       (Unspecified)
system.ruby.network.routers08.all_counts            0                       (Unspecified)
system.ruby.network.routers08.buffer_reads      1044063                       (Unspecified)
system.ruby.network.routers08.buffer_writes      1044063                       (Unspecified)
system.ruby.network.routers08.crossbar_activity      1044063                       (Unspecified)
system.ruby.network.routers08.detour_counts        53626                       (Unspecified)
system.ruby.network.routers08.regular_var            0                       (Unspecified)
system.ruby.network.routers08.risk_counts            0                       (Unspecified)
system.ruby.network.routers08.sw_input_arbiter_activity      1055541                       (Unspecified)
system.ruby.network.routers08.sw_output_arbiter_activity      1044063                       (Unspecified)
system.ruby.network.routers09.Var_1                 0                       (Unspecified)
system.ruby.network.routers09.Var_2                 0                       (Unspecified)
system.ruby.network.routers09.Var_3                 0                       (Unspecified)
system.ruby.network.routers09.all_counts            0                       (Unspecified)
system.ruby.network.routers09.buffer_reads      1375570                       (Unspecified)
system.ruby.network.routers09.buffer_writes      1375570                       (Unspecified)
system.ruby.network.routers09.crossbar_activity      1375570                       (Unspecified)
system.ruby.network.routers09.detour_counts        53448                       (Unspecified)
system.ruby.network.routers09.regular_var            0                       (Unspecified)
system.ruby.network.routers09.risk_counts            0                       (Unspecified)
system.ruby.network.routers09.sw_input_arbiter_activity      1393671                       (Unspecified)
system.ruby.network.routers09.sw_output_arbiter_activity      1375570                       (Unspecified)
system.ruby.network.routers10.Var_1                 0                       (Unspecified)
system.ruby.network.routers10.Var_2                 0                       (Unspecified)
system.ruby.network.routers10.Var_3                 0                       (Unspecified)
system.ruby.network.routers10.all_counts            0                       (Unspecified)
system.ruby.network.routers10.buffer_reads      1370369                       (Unspecified)
system.ruby.network.routers10.buffer_writes      1370369                       (Unspecified)
system.ruby.network.routers10.crossbar_activity      1370369                       (Unspecified)
system.ruby.network.routers10.detour_counts        53560                       (Unspecified)
system.ruby.network.routers10.regular_var            0                       (Unspecified)
system.ruby.network.routers10.risk_counts            0                       (Unspecified)
system.ruby.network.routers10.sw_input_arbiter_activity      1388367                       (Unspecified)
system.ruby.network.routers10.sw_output_arbiter_activity      1370369                       (Unspecified)
system.ruby.network.routers11.Var_1                 0                       (Unspecified)
system.ruby.network.routers11.Var_2                 0                       (Unspecified)
system.ruby.network.routers11.Var_3                 0                       (Unspecified)
system.ruby.network.routers11.all_counts            0                       (Unspecified)
system.ruby.network.routers11.buffer_reads      1034024                       (Unspecified)
system.ruby.network.routers11.buffer_writes      1034024                       (Unspecified)
system.ruby.network.routers11.crossbar_activity      1034024                       (Unspecified)
system.ruby.network.routers11.detour_counts        53755                       (Unspecified)
system.ruby.network.routers11.regular_var            0                       (Unspecified)
system.ruby.network.routers11.risk_counts            0                       (Unspecified)
system.ruby.network.routers11.sw_input_arbiter_activity      1044968                       (Unspecified)
system.ruby.network.routers11.sw_output_arbiter_activity      1034024                       (Unspecified)
system.ruby.network.routers12.Var_1                 0                       (Unspecified)
system.ruby.network.routers12.Var_2                 0                       (Unspecified)
system.ruby.network.routers12.Var_3                 0                       (Unspecified)
system.ruby.network.routers12.all_counts            0                       (Unspecified)
system.ruby.network.routers12.buffer_reads       738836                       (Unspecified)
system.ruby.network.routers12.buffer_writes       738836                       (Unspecified)
system.ruby.network.routers12.crossbar_activity       738836                       (Unspecified)
system.ruby.network.routers12.detour_counts        53639                       (Unspecified)
system.ruby.network.routers12.regular_var            0                       (Unspecified)
system.ruby.network.routers12.risk_counts            0                       (Unspecified)
system.ruby.network.routers12.sw_input_arbiter_activity       744264                       (Unspecified)
system.ruby.network.routers12.sw_output_arbiter_activity       738836                       (Unspecified)
system.ruby.network.routers13.Var_1                 0                       (Unspecified)
system.ruby.network.routers13.Var_2                 0                       (Unspecified)
system.ruby.network.routers13.Var_3                 0                       (Unspecified)
system.ruby.network.routers13.all_counts            0                       (Unspecified)
system.ruby.network.routers13.buffer_reads      1069580                       (Unspecified)
system.ruby.network.routers13.buffer_writes      1069580                       (Unspecified)
system.ruby.network.routers13.crossbar_activity      1069580                       (Unspecified)
system.ruby.network.routers13.detour_counts        53479                       (Unspecified)
system.ruby.network.routers13.regular_var            0                       (Unspecified)
system.ruby.network.routers13.risk_counts            0                       (Unspecified)
system.ruby.network.routers13.sw_input_arbiter_activity      1081376                       (Unspecified)
system.ruby.network.routers13.sw_output_arbiter_activity      1069580                       (Unspecified)
system.ruby.network.routers14.Var_1                 0                       (Unspecified)
system.ruby.network.routers14.Var_2                 0                       (Unspecified)
system.ruby.network.routers14.Var_3                 0                       (Unspecified)
system.ruby.network.routers14.all_counts            0                       (Unspecified)
system.ruby.network.routers14.buffer_reads      1064078                       (Unspecified)
system.ruby.network.routers14.buffer_writes      1064078                       (Unspecified)
system.ruby.network.routers14.crossbar_activity      1064078                       (Unspecified)
system.ruby.network.routers14.detour_counts        53753                       (Unspecified)
system.ruby.network.routers14.regular_var            0                       (Unspecified)
system.ruby.network.routers14.risk_counts            0                       (Unspecified)
system.ruby.network.routers14.sw_input_arbiter_activity      1076190                       (Unspecified)
system.ruby.network.routers14.sw_output_arbiter_activity      1064078                       (Unspecified)
system.ruby.network.routers15.Var_1                 0                       (Unspecified)
system.ruby.network.routers15.Var_2                 0                       (Unspecified)
system.ruby.network.routers15.Var_3                 0                       (Unspecified)
system.ruby.network.routers15.all_counts            0                       (Unspecified)
system.ruby.network.routers15.buffer_reads       735755                       (Unspecified)
system.ruby.network.routers15.buffer_writes       735755                       (Unspecified)
system.ruby.network.routers15.crossbar_activity       735755                       (Unspecified)
system.ruby.network.routers15.detour_counts        53697                       (Unspecified)
system.ruby.network.routers15.regular_var            0                       (Unspecified)
system.ruby.network.routers15.risk_counts            0                       (Unspecified)
system.ruby.network.routers15.sw_input_arbiter_activity       741092                       (Unspecified)
system.ruby.network.routers15.sw_output_arbiter_activity       735755                       (Unspecified)

---------- End Simulation Statistics   ----------
