
---------- Begin Simulation Statistics ----------
simSeconds                                   0.005314                       # Number of seconds simulated (Second)
simTicks                                   5313881500                       # Number of ticks simulated (Tick)
finalTick                                  5313881500                       # Number of ticks from beginning of simulation (restored from checkpoints and never reset) (Tick)
simFreq                                  1000000000000                       # The number of ticks per simulated second ((Tick/Second))
hostSeconds                                    724.02                       # Real time elapsed on the host (Second)
hostTickRate                                  7339426                       # The number of ticks simulated per host second (ticks/s) ((Tick/Second))
hostMemory                                   11460512                       # Number of bytes of host memory used (Byte)
simInsts                                     34859824                       # Number of instructions simulated (Count)
simOps                                       60293328                       # Number of ops (including micro ops) simulated (Count)
hostInstRate                                    48148                       # Simulator instruction rate (inst/s) ((Count/Second))
hostOpRate                                      83276                       # Simulator op (including micro ops) rate (op/s) ((Count/Second))
system.clk_domain.clock                          1000                       # Clock period in ticks (Tick)
system.cpu0.numCycles                        10533512                       # Number of cpu cycles simulated (Cycle)
system.cpu0.numWorkItemsStarted                     0                       # Number of work items this cpu started (Count)
system.cpu0.numWorkItemsCompleted                   0                       # Number of work items this cpu completed (Count)
system.cpu0.instsAdded                        4811594                       # Number of instructions added to the IQ (excludes non-spec) (Count)
system.cpu0.nonSpecInstsAdded                    1089                       # Number of non-speculative instructions added to the IQ (Count)
system.cpu0.instsIssued                       4450721                       # Number of instructions issued (Count)
system.cpu0.squashedInstsIssued                  2811                       # Number of squashed instructions issued (Count)
system.cpu0.squashedInstsExamined             1044350                       # Number of squashed instructions iterated over during squash; mainly for profiling (Count)
system.cpu0.squashedOperandsExamined          2251910                       # Number of squashed operands that are examined and possibly removed from graph (Count)
system.cpu0.squashedNonSpecRemoved                236                       # Number of squashed non-spec instructions that were removed (Count)
system.cpu0.numIssuedDist::samples            9338083                       # Number of insts issued each cycle (Count)
system.cpu0.numIssuedDist::mean              0.476620                       # Number of insts issued each cycle (Count)
system.cpu0.numIssuedDist::stdev             1.402241                       # Number of insts issued each cycle (Count)
system.cpu0.numIssuedDist::underflows               0      0.00%      0.00% # Number of insts issued each cycle (Count)
system.cpu0.numIssuedDist::0                  8091249     86.65%     86.65% # Number of insts issued each cycle (Count)
system.cpu0.numIssuedDist::1                   198700      2.13%     88.78% # Number of insts issued each cycle (Count)
system.cpu0.numIssuedDist::2                   228900      2.45%     91.23% # Number of insts issued each cycle (Count)
system.cpu0.numIssuedDist::3                   242221      2.59%     93.82% # Number of insts issued each cycle (Count)
system.cpu0.numIssuedDist::4                   195068      2.09%     95.91% # Number of insts issued each cycle (Count)
system.cpu0.numIssuedDist::5                   148784      1.59%     97.50% # Number of insts issued each cycle (Count)
system.cpu0.numIssuedDist::6                   127067      1.36%     98.86% # Number of insts issued each cycle (Count)
system.cpu0.numIssuedDist::7                    67788      0.73%     99.59% # Number of insts issued each cycle (Count)
system.cpu0.numIssuedDist::8                    38306      0.41%    100.00% # Number of insts issued each cycle (Count)
system.cpu0.numIssuedDist::overflows                0      0.00%    100.00% # Number of insts issued each cycle (Count)
system.cpu0.numIssuedDist::min_value                0                       # Number of insts issued each cycle (Count)
system.cpu0.numIssuedDist::max_value                8                       # Number of insts issued each cycle (Count)
system.cpu0.numIssuedDist::total              9338083                       # Number of insts issued each cycle (Count)
system.cpu0.statFuBusy::No_OpClass                  0      0.00%      0.00% # attempts to use FU when none available (Count)
system.cpu0.statFuBusy::IntAlu                  41891     65.62%     65.62% # attempts to use FU when none available (Count)
system.cpu0.statFuBusy::IntMult                     0      0.00%     65.62% # attempts to use FU when none available (Count)
system.cpu0.statFuBusy::IntDiv                      0      0.00%     65.62% # attempts to use FU when none available (Count)
system.cpu0.statFuBusy::FloatAdd                    0      0.00%     65.62% # attempts to use FU when none available (Count)
system.cpu0.statFuBusy::FloatCmp                    0      0.00%     65.62% # attempts to use FU when none available (Count)
system.cpu0.statFuBusy::FloatCvt                    2      0.00%     65.63% # attempts to use FU when none available (Count)
system.cpu0.statFuBusy::FloatMult                   0      0.00%     65.63% # attempts to use FU when none available (Count)
system.cpu0.statFuBusy::FloatMultAcc                0      0.00%     65.63% # attempts to use FU when none available (Count)
system.cpu0.statFuBusy::FloatDiv                    0      0.00%     65.63% # attempts to use FU when none available (Count)
system.cpu0.statFuBusy::FloatMisc                   0      0.00%     65.63% # attempts to use FU when none available (Count)
system.cpu0.statFuBusy::FloatSqrt                   0      0.00%     65.63% # attempts to use FU when none available (Count)
system.cpu0.statFuBusy::SimdAdd                     0      0.00%     65.63% # attempts to use FU when none available (Count)
system.cpu0.statFuBusy::SimdAddAcc                  0      0.00%     65.63% # attempts to use FU when none available (Count)
system.cpu0.statFuBusy::SimdAlu                   126      0.20%     65.83% # attempts to use FU when none available (Count)
system.cpu0.statFuBusy::SimdCmp                     0      0.00%     65.83% # attempts to use FU when none available (Count)
system.cpu0.statFuBusy::SimdCvt                   124      0.19%     66.02% # attempts to use FU when none available (Count)
system.cpu0.statFuBusy::SimdMisc                    0      0.00%     66.02% # attempts to use FU when none available (Count)
system.cpu0.statFuBusy::SimdMult                    0      0.00%     66.02% # attempts to use FU when none available (Count)
system.cpu0.statFuBusy::SimdMultAcc                 0      0.00%     66.02% # attempts to use FU when none available (Count)
system.cpu0.statFuBusy::SimdShift                 139      0.22%     66.24% # attempts to use FU when none available (Count)
system.cpu0.statFuBusy::SimdShiftAcc                0      0.00%     66.24% # attempts to use FU when none available (Count)
system.cpu0.statFuBusy::SimdDiv                     0      0.00%     66.24% # attempts to use FU when none available (Count)
system.cpu0.statFuBusy::SimdSqrt                    0      0.00%     66.24% # attempts to use FU when none available (Count)
system.cpu0.statFuBusy::SimdFloatAdd                0      0.00%     66.24% # attempts to use FU when none available (Count)
system.cpu0.statFuBusy::SimdFloatAlu                0      0.00%     66.24% # attempts to use FU when none available (Count)
system.cpu0.statFuBusy::SimdFloatCmp                0      0.00%     66.24% # attempts to use FU when none available (Count)
system.cpu0.statFuBusy::SimdFloatCvt                0      0.00%     66.24% # attempts to use FU when none available (Count)
system.cpu0.statFuBusy::SimdFloatDiv                0      0.00%     66.24% # attempts to use FU when none available (Count)
system.cpu0.statFuBusy::SimdFloatMisc               0      0.00%     66.24% # attempts to use FU when none available (Count)
system.cpu0.statFuBusy::SimdFloatMult               0      0.00%     66.24% # attempts to use FU when none available (Count)
system.cpu0.statFuBusy::SimdFloatMultAcc            0      0.00%     66.24% # attempts to use FU when none available (Count)
system.cpu0.statFuBusy::SimdFloatSqrt               0      0.00%     66.24% # attempts to use FU when none available (Count)
system.cpu0.statFuBusy::SimdReduceAdd               0      0.00%     66.24% # attempts to use FU when none available (Count)
system.cpu0.statFuBusy::SimdReduceAlu               0      0.00%     66.24% # attempts to use FU when none available (Count)
system.cpu0.statFuBusy::SimdReduceCmp               0      0.00%     66.24% # attempts to use FU when none available (Count)
system.cpu0.statFuBusy::SimdFloatReduceAdd            0      0.00%     66.24% # attempts to use FU when none available (Count)
system.cpu0.statFuBusy::SimdFloatReduceCmp            0      0.00%     66.24% # attempts to use FU when none available (Count)
system.cpu0.statFuBusy::SimdAes                     0      0.00%     66.24% # attempts to use FU when none available (Count)
system.cpu0.statFuBusy::SimdAesMix                  0      0.00%     66.24% # attempts to use FU when none available (Count)
system.cpu0.statFuBusy::SimdSha1Hash                0      0.00%     66.24% # attempts to use FU when none available (Count)
system.cpu0.statFuBusy::SimdSha1Hash2               0      0.00%     66.24% # attempts to use FU when none available (Count)
system.cpu0.statFuBusy::SimdSha256Hash              0      0.00%     66.24% # attempts to use FU when none available (Count)
system.cpu0.statFuBusy::SimdSha256Hash2             0      0.00%     66.24% # attempts to use FU when none available (Count)
system.cpu0.statFuBusy::SimdShaSigma2               0      0.00%     66.24% # attempts to use FU when none available (Count)
system.cpu0.statFuBusy::SimdShaSigma3               0      0.00%     66.24% # attempts to use FU when none available (Count)
system.cpu0.statFuBusy::SimdPredAlu                 0      0.00%     66.24% # attempts to use FU when none available (Count)
system.cpu0.statFuBusy::MemRead                 11982     18.77%     85.01% # attempts to use FU when none available (Count)
system.cpu0.statFuBusy::MemWrite                 7721     12.10%     97.10% # attempts to use FU when none available (Count)
system.cpu0.statFuBusy::FloatMemRead             1402      2.20%     99.30% # attempts to use FU when none available (Count)
system.cpu0.statFuBusy::FloatMemWrite             447      0.70%    100.00% # attempts to use FU when none available (Count)
system.cpu0.statFuBusy::IprAccess                   0      0.00%    100.00% # attempts to use FU when none available (Count)
system.cpu0.statFuBusy::InstPrefetch                0      0.00%    100.00% # attempts to use FU when none available (Count)
system.cpu0.statIssuedInstType_0::No_OpClass        18228      0.41%      0.41% # Number of instructions issued per FU type, per thread (Count)
system.cpu0.statIssuedInstType_0::IntAlu      3490300     78.42%     78.83% # Number of instructions issued per FU type, per thread (Count)
system.cpu0.statIssuedInstType_0::IntMult           35      0.00%     78.83% # Number of instructions issued per FU type, per thread (Count)
system.cpu0.statIssuedInstType_0::IntDiv        38179      0.86%     79.69% # Number of instructions issued per FU type, per thread (Count)
system.cpu0.statIssuedInstType_0::FloatAdd         4300      0.10%     79.79% # Number of instructions issued per FU type, per thread (Count)
system.cpu0.statIssuedInstType_0::FloatCmp            0      0.00%     79.79% # Number of instructions issued per FU type, per thread (Count)
system.cpu0.statIssuedInstType_0::FloatCvt         1706      0.04%     79.82% # Number of instructions issued per FU type, per thread (Count)
system.cpu0.statIssuedInstType_0::FloatMult            0      0.00%     79.82% # Number of instructions issued per FU type, per thread (Count)
system.cpu0.statIssuedInstType_0::FloatMultAcc            0      0.00%     79.82% # Number of instructions issued per FU type, per thread (Count)
system.cpu0.statIssuedInstType_0::FloatDiv            0      0.00%     79.82% # Number of instructions issued per FU type, per thread (Count)
system.cpu0.statIssuedInstType_0::FloatMisc            0      0.00%     79.82% # Number of instructions issued per FU type, per thread (Count)
system.cpu0.statIssuedInstType_0::FloatSqrt            0      0.00%     79.82% # Number of instructions issued per FU type, per thread (Count)
system.cpu0.statIssuedInstType_0::SimdAdd         8181      0.18%     80.01% # Number of instructions issued per FU type, per thread (Count)
system.cpu0.statIssuedInstType_0::SimdAddAcc            0      0.00%     80.01% # Number of instructions issued per FU type, per thread (Count)
system.cpu0.statIssuedInstType_0::SimdAlu        16701      0.38%     80.38% # Number of instructions issued per FU type, per thread (Count)
system.cpu0.statIssuedInstType_0::SimdCmp            0      0.00%     80.38% # Number of instructions issued per FU type, per thread (Count)
system.cpu0.statIssuedInstType_0::SimdCvt        18241      0.41%     80.79% # Number of instructions issued per FU type, per thread (Count)
system.cpu0.statIssuedInstType_0::SimdMisc         8665      0.19%     80.99% # Number of instructions issued per FU type, per thread (Count)
system.cpu0.statIssuedInstType_0::SimdMult            0      0.00%     80.99% # Number of instructions issued per FU type, per thread (Count)
system.cpu0.statIssuedInstType_0::SimdMultAcc            0      0.00%     80.99% # Number of instructions issued per FU type, per thread (Count)
system.cpu0.statIssuedInstType_0::SimdShift         2412      0.05%     81.04% # Number of instructions issued per FU type, per thread (Count)
system.cpu0.statIssuedInstType_0::SimdShiftAcc            0      0.00%     81.04% # Number of instructions issued per FU type, per thread (Count)
system.cpu0.statIssuedInstType_0::SimdDiv            0      0.00%     81.04% # Number of instructions issued per FU type, per thread (Count)
system.cpu0.statIssuedInstType_0::SimdSqrt            0      0.00%     81.04% # Number of instructions issued per FU type, per thread (Count)
system.cpu0.statIssuedInstType_0::SimdFloatAdd            0      0.00%     81.04% # Number of instructions issued per FU type, per thread (Count)
system.cpu0.statIssuedInstType_0::SimdFloatAlu            0      0.00%     81.04% # Number of instructions issued per FU type, per thread (Count)
system.cpu0.statIssuedInstType_0::SimdFloatCmp            0      0.00%     81.04% # Number of instructions issued per FU type, per thread (Count)
system.cpu0.statIssuedInstType_0::SimdFloatCvt            0      0.00%     81.04% # Number of instructions issued per FU type, per thread (Count)
system.cpu0.statIssuedInstType_0::SimdFloatDiv            0      0.00%     81.04% # Number of instructions issued per FU type, per thread (Count)
system.cpu0.statIssuedInstType_0::SimdFloatMisc            0      0.00%     81.04% # Number of instructions issued per FU type, per thread (Count)
system.cpu0.statIssuedInstType_0::SimdFloatMult            0      0.00%     81.04% # Number of instructions issued per FU type, per thread (Count)
system.cpu0.statIssuedInstType_0::SimdFloatMultAcc            0      0.00%     81.04% # Number of instructions issued per FU type, per thread (Count)
system.cpu0.statIssuedInstType_0::SimdFloatSqrt            0      0.00%     81.04% # Number of instructions issued per FU type, per thread (Count)
system.cpu0.statIssuedInstType_0::SimdReduceAdd            0      0.00%     81.04% # Number of instructions issued per FU type, per thread (Count)
system.cpu0.statIssuedInstType_0::SimdReduceAlu            0      0.00%     81.04% # Number of instructions issued per FU type, per thread (Count)
system.cpu0.statIssuedInstType_0::SimdReduceCmp            0      0.00%     81.04% # Number of instructions issued per FU type, per thread (Count)
system.cpu0.statIssuedInstType_0::SimdFloatReduceAdd            0      0.00%     81.04% # Number of instructions issued per FU type, per thread (Count)
system.cpu0.statIssuedInstType_0::SimdFloatReduceCmp            0      0.00%     81.04% # Number of instructions issued per FU type, per thread (Count)
system.cpu0.statIssuedInstType_0::SimdAes            0      0.00%     81.04% # Number of instructions issued per FU type, per thread (Count)
system.cpu0.statIssuedInstType_0::SimdAesMix            0      0.00%     81.04% # Number of instructions issued per FU type, per thread (Count)
system.cpu0.statIssuedInstType_0::SimdSha1Hash            0      0.00%     81.04% # Number of instructions issued per FU type, per thread (Count)
system.cpu0.statIssuedInstType_0::SimdSha1Hash2            0      0.00%     81.04% # Number of instructions issued per FU type, per thread (Count)
system.cpu0.statIssuedInstType_0::SimdSha256Hash            0      0.00%     81.04% # Number of instructions issued per FU type, per thread (Count)
system.cpu0.statIssuedInstType_0::SimdSha256Hash2            0      0.00%     81.04% # Number of instructions issued per FU type, per thread (Count)
system.cpu0.statIssuedInstType_0::SimdShaSigma2            0      0.00%     81.04% # Number of instructions issued per FU type, per thread (Count)
system.cpu0.statIssuedInstType_0::SimdShaSigma3            0      0.00%     81.04% # Number of instructions issued per FU type, per thread (Count)
system.cpu0.statIssuedInstType_0::SimdPredAlu            0      0.00%     81.04% # Number of instructions issued per FU type, per thread (Count)
system.cpu0.statIssuedInstType_0::MemRead       603757     13.57%     94.61% # Number of instructions issued per FU type, per thread (Count)
system.cpu0.statIssuedInstType_0::MemWrite       188930      4.24%     98.85% # Number of instructions issued per FU type, per thread (Count)
system.cpu0.statIssuedInstType_0::FloatMemRead        33175      0.75%     99.60% # Number of instructions issued per FU type, per thread (Count)
system.cpu0.statIssuedInstType_0::FloatMemWrite        17911      0.40%    100.00% # Number of instructions issued per FU type, per thread (Count)
system.cpu0.statIssuedInstType_0::IprAccess            0      0.00%    100.00% # Number of instructions issued per FU type, per thread (Count)
system.cpu0.statIssuedInstType_0::InstPrefetch            0      0.00%    100.00% # Number of instructions issued per FU type, per thread (Count)
system.cpu0.statIssuedInstType_0::total       4450721                       # Number of instructions issued per FU type, per thread (Count)
system.cpu0.issueRate                        0.422530                       # Inst issue rate ((Count/Cycle))
system.cpu0.fuBusy                              63834                       # FU busy when requested (Count)
system.cpu0.fuBusyRate                       0.014342                       # FU busy rate (busy events/executed inst) ((Count/Count))
system.cpu0.intInstQueueReads                18078838                       # Number of integer instruction queue reads (Count)
system.cpu0.intInstQueueWrites                5684783                       # Number of integer instruction queue writes (Count)
system.cpu0.intInstQueueWakeupAccesses        4282310                       # Number of integer instruction queue wakeup accesses (Count)
system.cpu0.fpInstQueueReads                   227332                       # Number of floating instruction queue reads (Count)
system.cpu0.fpInstQueueWrites                  172391                       # Number of floating instruction queue writes (Count)
system.cpu0.fpInstQueueWakeupAccesses          108687                       # Number of floating instruction queue wakeup accesses (Count)
system.cpu0.vecInstQueueReads                       0                       # Number of vector instruction queue reads (Count)
system.cpu0.vecInstQueueWrites                      0                       # Number of vector instruction queue writes (Count)
system.cpu0.vecInstQueueWakeupAccesses              0                       # Number of vector instruction queue wakeup accesses (Count)
system.cpu0.intAluAccesses                    4381685                       # Number of integer alu accesses (Count)
system.cpu0.fpAluAccesses                      114642                       # Number of floating point alu accesses (Count)
system.cpu0.vecAluAccesses                          0                       # Number of vector alu accesses (Count)
system.cpu0.numInsts                          4420423                       # Number of executed instructions (Count)
system.cpu0.numLoadInsts                       629286                       # Number of load instructions executed (Count)
system.cpu0.numSquashedInsts                    30298                       # Number of squashed instructions skipped in execute (Count)
system.cpu0.numSwp                                  0                       # Number of swp insts executed (Count)
system.cpu0.numNop                                  0                       # Number of nop insts executed (Count)
system.cpu0.numRefs                            834144                       # Number of memory reference insts executed (Count)
system.cpu0.numBranches                        396344                       # Number of branches executed (Count)
system.cpu0.numStoreInsts                      204858                       # Number of stores executed (Count)
system.cpu0.numRate                          0.419653                       # Inst execution rate ((Count/Cycle))
system.cpu0.timesIdled                           2344                       # Number of times that the entire CPU went into an idle state and unscheduled itself (Count)
system.cpu0.idleCycles                        1195429                       # Total number of cycles that the CPU has spent unscheduled due to idling (Cycle)
system.cpu0.committedInsts                    2178739                       # Number of Instructions Simulated (Count)
system.cpu0.committedOps                      3768333                       # Number of Ops (including micro ops) Simulated (Count)
system.cpu0.cpi                              4.834683                       # CPI: Cycles Per Instruction ((Cycle/Count))
system.cpu0.totalCpi                         4.834683                       # CPI: Total CPI of All Threads ((Cycle/Count))
system.cpu0.ipc                              0.206839                       # IPC: Instructions Per Cycle ((Count/Cycle))
system.cpu0.totalIpc                         0.206839                       # IPC: Total IPC of All Threads ((Count/Cycle))
system.cpu0.intRegfileReads                   6017060                       # Number of integer regfile reads (Count)
system.cpu0.intRegfileWrites                  3440318                       # Number of integer regfile writes (Count)
system.cpu0.fpRegfileReads                     147035                       # Number of floating regfile reads (Count)
system.cpu0.fpRegfileWrites                     81768                       # Number of floating regfile writes (Count)
system.cpu0.ccRegfileReads                    2511623                       # number of cc regfile reads (Count)
system.cpu0.ccRegfileWrites                   2052063                       # number of cc regfile writes (Count)
system.cpu0.miscRegfileReads                  1669839                       # number of misc regfile reads (Count)
system.cpu0.miscRegfileWrites                     846                       # number of misc regfile writes (Count)
system.cpu0.MemDepUnit__0.insertedLoads        656973                       # Number of loads inserted to the mem dependence unit. (Count)
system.cpu0.MemDepUnit__0.insertedStores       216838                       # Number of stores inserted to the mem dependence unit. (Count)
system.cpu0.MemDepUnit__0.conflictingLoads        16919                       # Number of conflicting loads. (Count)
system.cpu0.MemDepUnit__0.conflictingStores         6815                       # Number of conflicting stores. (Count)
system.cpu0.MemDepUnit__1.insertedLoads             0                       # Number of loads inserted to the mem dependence unit. (Count)
system.cpu0.MemDepUnit__1.insertedStores            0                       # Number of stores inserted to the mem dependence unit. (Count)
system.cpu0.MemDepUnit__1.conflictingLoads            0                       # Number of conflicting loads. (Count)
system.cpu0.MemDepUnit__1.conflictingStores            0                       # Number of conflicting stores. (Count)
system.cpu0.MemDepUnit__2.insertedLoads             0                       # Number of loads inserted to the mem dependence unit. (Count)
system.cpu0.MemDepUnit__2.insertedStores            0                       # Number of stores inserted to the mem dependence unit. (Count)
system.cpu0.MemDepUnit__2.conflictingLoads            0                       # Number of conflicting loads. (Count)
system.cpu0.MemDepUnit__2.conflictingStores            0                       # Number of conflicting stores. (Count)
system.cpu0.MemDepUnit__3.insertedLoads             0                       # Number of loads inserted to the mem dependence unit. (Count)
system.cpu0.MemDepUnit__3.insertedStores            0                       # Number of stores inserted to the mem dependence unit. (Count)
system.cpu0.MemDepUnit__3.conflictingLoads            0                       # Number of conflicting loads. (Count)
system.cpu0.MemDepUnit__3.conflictingStores            0                       # Number of conflicting stores. (Count)
system.cpu0.branchPred.lookups                 512640                       # Number of BP lookups (Count)
system.cpu0.branchPred.condPredicted           454201                       # Number of conditional branches predicted (Count)
system.cpu0.branchPred.condIncorrect            17059                       # Number of conditional branches incorrect (Count)
system.cpu0.branchPred.BTBLookups              270576                       # Number of BTB lookups (Count)
system.cpu0.branchPred.BTBUpdates                8661                       # Number of BTB updates (Count)
system.cpu0.branchPred.BTBHits                 266508                       # Number of BTB hits (Count)
system.cpu0.branchPred.BTBHitRatio           0.984965                       # BTB Hit Ratio (Ratio)
system.cpu0.branchPred.RASUsed                  13389                       # Number of times the RAS was used to get a target. (Count)
system.cpu0.branchPred.RASIncorrect                 9                       # Number of incorrect RAS predictions. (Count)
system.cpu0.branchPred.indirectLookups           9952                       # Number of indirect predictor lookups. (Count)
system.cpu0.branchPred.indirectHits              5135                       # Number of indirect target hits. (Count)
system.cpu0.branchPred.indirectMisses            4817                       # Number of indirect misses. (Count)
system.cpu0.branchPred.indirectMispredicted         1179                       # Number of mispredicted indirect branches. (Count)
system.cpu0.commit.commitSquashedInsts        1035373                       # The number of squashed insts skipped by commit (Count)
system.cpu0.commit.commitNonSpecStalls            853                       # The number of times commit has been forced to stall to communicate backwards (Count)
system.cpu0.commit.branchMispredicts            18402                       # The number of times a branch was mispredicted (Count)
system.cpu0.commit.numCommittedDist::samples      9187836                       # Number of insts commited each cycle (Count)
system.cpu0.commit.numCommittedDist::mean     0.410144                       # Number of insts commited each cycle (Count)
system.cpu0.commit.numCommittedDist::stdev     1.463898                       # Number of insts commited each cycle (Count)
system.cpu0.commit.numCommittedDist::underflows            0      0.00%      0.00% # Number of insts commited each cycle (Count)
system.cpu0.commit.numCommittedDist::0        8226134     89.53%     89.53% # Number of insts commited each cycle (Count)
system.cpu0.commit.numCommittedDist::1         232107      2.53%     92.06% # Number of insts commited each cycle (Count)
system.cpu0.commit.numCommittedDist::2          93549      1.02%     93.08% # Number of insts commited each cycle (Count)
system.cpu0.commit.numCommittedDist::3         242236      2.64%     95.71% # Number of insts commited each cycle (Count)
system.cpu0.commit.numCommittedDist::4          44916      0.49%     96.20% # Number of insts commited each cycle (Count)
system.cpu0.commit.numCommittedDist::5          98828      1.08%     97.28% # Number of insts commited each cycle (Count)
system.cpu0.commit.numCommittedDist::6          16863      0.18%     97.46% # Number of insts commited each cycle (Count)
system.cpu0.commit.numCommittedDist::7          18186      0.20%     97.66% # Number of insts commited each cycle (Count)
system.cpu0.commit.numCommittedDist::8         215017      2.34%    100.00% # Number of insts commited each cycle (Count)
system.cpu0.commit.numCommittedDist::overflows            0      0.00%    100.00% # Number of insts commited each cycle (Count)
system.cpu0.commit.numCommittedDist::min_value            0                       # Number of insts commited each cycle (Count)
system.cpu0.commit.numCommittedDist::max_value            8                       # Number of insts commited each cycle (Count)
system.cpu0.commit.numCommittedDist::total      9187836                       # Number of insts commited each cycle (Count)
system.cpu0.commit.instsCommitted             2178739                       # Number of instructions committed (Count)
system.cpu0.commit.opsCommitted               3768333                       # Number of ops (including micro ops) committed (Count)
system.cpu0.commit.memRefs                     699126                       # Number of memory references committed (Count)
system.cpu0.commit.loads                       519806                       # Number of loads committed (Count)
system.cpu0.commit.amos                             0                       # Number of atomic instructions committed (Count)
system.cpu0.commit.membars                          2                       # Number of memory barriers committed (Count)
system.cpu0.commit.branches                    360538                       # Number of branches committed (Count)
system.cpu0.commit.vectorInstructions               0                       # Number of committed Vector instructions. (Count)
system.cpu0.commit.floating                     80355                       # Number of committed floating point instructions. (Count)
system.cpu0.commit.integer                    3708876                       # Number of committed integer instructions. (Count)
system.cpu0.commit.functionCalls                 9584                       # Number of function calls committed. (Count)
system.cpu0.commit.committedInstType_0::No_OpClass        10758      0.29%      0.29% # Class of committed instruction (Count)
system.cpu0.commit.committedInstType_0::IntAlu      2978047     79.03%     79.31% # Class of committed instruction (Count)
system.cpu0.commit.committedInstType_0::IntMult           29      0.00%     79.31% # Class of committed instruction (Count)
system.cpu0.commit.committedInstType_0::IntDiv        35830      0.95%     80.27% # Class of committed instruction (Count)
system.cpu0.commit.committedInstType_0::FloatAdd         3175      0.08%     80.35% # Class of committed instruction (Count)
system.cpu0.commit.committedInstType_0::FloatCmp            0      0.00%     80.35% # Class of committed instruction (Count)
system.cpu0.commit.committedInstType_0::FloatCvt         1504      0.04%     80.39% # Class of committed instruction (Count)
system.cpu0.commit.committedInstType_0::FloatMult            0      0.00%     80.39% # Class of committed instruction (Count)
system.cpu0.commit.committedInstType_0::FloatMultAcc            0      0.00%     80.39% # Class of committed instruction (Count)
system.cpu0.commit.committedInstType_0::FloatDiv            0      0.00%     80.39% # Class of committed instruction (Count)
system.cpu0.commit.committedInstType_0::FloatMisc            0      0.00%     80.39% # Class of committed instruction (Count)
system.cpu0.commit.committedInstType_0::FloatSqrt            0      0.00%     80.39% # Class of committed instruction (Count)
system.cpu0.commit.committedInstType_0::SimdAdd         6610      0.18%     80.56% # Class of committed instruction (Count)
system.cpu0.commit.committedInstType_0::SimdAddAcc            0      0.00%     80.56% # Class of committed instruction (Count)
system.cpu0.commit.committedInstType_0::SimdAlu        11924      0.32%     80.88% # Class of committed instruction (Count)
system.cpu0.commit.committedInstType_0::SimdCmp            0      0.00%     80.88% # Class of committed instruction (Count)
system.cpu0.commit.committedInstType_0::SimdCvt        12916      0.34%     81.22% # Class of committed instruction (Count)
system.cpu0.commit.committedInstType_0::SimdMisc         7061      0.19%     81.41% # Class of committed instruction (Count)
system.cpu0.commit.committedInstType_0::SimdMult            0      0.00%     81.41% # Class of committed instruction (Count)
system.cpu0.commit.committedInstType_0::SimdMultAcc            0      0.00%     81.41% # Class of committed instruction (Count)
system.cpu0.commit.committedInstType_0::SimdShift         1353      0.04%     81.45% # Class of committed instruction (Count)
system.cpu0.commit.committedInstType_0::SimdShiftAcc            0      0.00%     81.45% # Class of committed instruction (Count)
system.cpu0.commit.committedInstType_0::SimdDiv            0      0.00%     81.45% # Class of committed instruction (Count)
system.cpu0.commit.committedInstType_0::SimdSqrt            0      0.00%     81.45% # Class of committed instruction (Count)
system.cpu0.commit.committedInstType_0::SimdFloatAdd            0      0.00%     81.45% # Class of committed instruction (Count)
system.cpu0.commit.committedInstType_0::SimdFloatAlu            0      0.00%     81.45% # Class of committed instruction (Count)
system.cpu0.commit.committedInstType_0::SimdFloatCmp            0      0.00%     81.45% # Class of committed instruction (Count)
system.cpu0.commit.committedInstType_0::SimdFloatCvt            0      0.00%     81.45% # Class of committed instruction (Count)
system.cpu0.commit.committedInstType_0::SimdFloatDiv            0      0.00%     81.45% # Class of committed instruction (Count)
system.cpu0.commit.committedInstType_0::SimdFloatMisc            0      0.00%     81.45% # Class of committed instruction (Count)
system.cpu0.commit.committedInstType_0::SimdFloatMult            0      0.00%     81.45% # Class of committed instruction (Count)
system.cpu0.commit.committedInstType_0::SimdFloatMultAcc            0      0.00%     81.45% # Class of committed instruction (Count)
system.cpu0.commit.committedInstType_0::SimdFloatSqrt            0      0.00%     81.45% # Class of committed instruction (Count)
system.cpu0.commit.committedInstType_0::SimdReduceAdd            0      0.00%     81.45% # Class of committed instruction (Count)
system.cpu0.commit.committedInstType_0::SimdReduceAlu            0      0.00%     81.45% # Class of committed instruction (Count)
system.cpu0.commit.committedInstType_0::SimdReduceCmp            0      0.00%     81.45% # Class of committed instruction (Count)
system.cpu0.commit.committedInstType_0::SimdFloatReduceAdd            0      0.00%     81.45% # Class of committed instruction (Count)
system.cpu0.commit.committedInstType_0::SimdFloatReduceCmp            0      0.00%     81.45% # Class of committed instruction (Count)
system.cpu0.commit.committedInstType_0::SimdAes            0      0.00%     81.45% # Class of committed instruction (Count)
system.cpu0.commit.committedInstType_0::SimdAesMix            0      0.00%     81.45% # Class of committed instruction (Count)
system.cpu0.commit.committedInstType_0::SimdSha1Hash            0      0.00%     81.45% # Class of committed instruction (Count)
system.cpu0.commit.committedInstType_0::SimdSha1Hash2            0      0.00%     81.45% # Class of committed instruction (Count)
system.cpu0.commit.committedInstType_0::SimdSha256Hash            0      0.00%     81.45% # Class of committed instruction (Count)
system.cpu0.commit.committedInstType_0::SimdSha256Hash2            0      0.00%     81.45% # Class of committed instruction (Count)
system.cpu0.commit.committedInstType_0::SimdShaSigma2            0      0.00%     81.45% # Class of committed instruction (Count)
system.cpu0.commit.committedInstType_0::SimdShaSigma3            0      0.00%     81.45% # Class of committed instruction (Count)
system.cpu0.commit.committedInstType_0::SimdPredAlu            0      0.00%     81.45% # Class of committed instruction (Count)
system.cpu0.commit.committedInstType_0::MemRead       498777     13.24%     94.68% # Class of committed instruction (Count)
system.cpu0.commit.committedInstType_0::MemWrite       165406      4.39%     99.07% # Class of committed instruction (Count)
system.cpu0.commit.committedInstType_0::FloatMemRead        21029      0.56%     99.63% # Class of committed instruction (Count)
system.cpu0.commit.committedInstType_0::FloatMemWrite        13914      0.37%    100.00% # Class of committed instruction (Count)
system.cpu0.commit.committedInstType_0::IprAccess            0      0.00%    100.00% # Class of committed instruction (Count)
system.cpu0.commit.committedInstType_0::InstPrefetch            0      0.00%    100.00% # Class of committed instruction (Count)
system.cpu0.commit.committedInstType_0::total      3768333                       # Class of committed instruction (Count)
system.cpu0.commit.commitEligibleSamples       215017                       # number cycles where commit BW limit reached (Cycle)
system.cpu0.decode.idleCycles                  487664                       # Number of cycles decode is idle (Cycle)
system.cpu0.decode.blockedCycles              8118068                       # Number of cycles decode is blocked (Cycle)
system.cpu0.decode.runCycles                   515791                       # Number of cycles decode is running (Cycle)
system.cpu0.decode.unblockCycles               197442                       # Number of cycles decode is unblocking (Cycle)
system.cpu0.decode.squashCycles                 19118                       # Number of cycles decode is squashing (Cycle)
system.cpu0.decode.branchResolved              252646                       # Number of times decode resolved a branch (Count)
system.cpu0.decode.branchMispred                 1205                       # Number of times decode detected a branch misprediction (Count)
system.cpu0.decode.decodedInsts               4995972                       # Number of instructions handled by decode (Count)
system.cpu0.decode.squashedInsts                 5679                       # Number of squashed instructions handled by decode (Count)
system.cpu0.fetch.icacheStallCycles            466802                       # Number of cycles fetch is stalled on an Icache miss (Cycle)
system.cpu0.fetch.insts                       3017563                       # Number of instructions fetch has processed (Count)
system.cpu0.fetch.branches                     512640                       # Number of branches that fetch encountered (Count)
system.cpu0.fetch.predictedBranches            285032                       # Number of branches that fetch has predicted taken (Count)
system.cpu0.fetch.cycles                      8602291                       # Number of cycles fetch has run and was not squashing or blocked (Cycle)
system.cpu0.fetch.squashCycles                  40600                       # Number of cycles fetch has spent squashing (Cycle)
system.cpu0.fetch.miscStallCycles               18854                       # Number of cycles fetch has spent waiting on interrupts, or bad addresses, or out of MSHRs (Cycle)
system.cpu0.fetch.pendingTrapStallCycles        16621                       # Number of stall cycles due to pending traps (Cycle)
system.cpu0.fetch.icacheWaitRetryStallCycles       213215                       # Number of stall cycles due to full MSHR (Cycle)
system.cpu0.fetch.cacheLines                   264803                       # Number of cache lines fetched (Count)
system.cpu0.fetch.icacheSquashes                 4727                       # Number of outstanding Icache misses that were squashed (Count)
system.cpu0.fetch.nisnDist::samples           9338083                       # Number of instructions fetched each cycle (Total) (Count)
system.cpu0.fetch.nisnDist::mean             0.567688                       # Number of instructions fetched each cycle (Total) (Count)
system.cpu0.fetch.nisnDist::stdev            1.902564                       # Number of instructions fetched each cycle (Total) (Count)
system.cpu0.fetch.nisnDist::underflows              0      0.00%      0.00% # Number of instructions fetched each cycle (Total) (Count)
system.cpu0.fetch.nisnDist::0                 8461793     90.62%     90.62% # Number of instructions fetched each cycle (Total) (Count)
system.cpu0.fetch.nisnDist::1                   42202      0.45%     91.07% # Number of instructions fetched each cycle (Total) (Count)
system.cpu0.fetch.nisnDist::2                   39022      0.42%     91.49% # Number of instructions fetched each cycle (Total) (Count)
system.cpu0.fetch.nisnDist::3                   66568      0.71%     92.20% # Number of instructions fetched each cycle (Total) (Count)
system.cpu0.fetch.nisnDist::4                  138214      1.48%     93.68% # Number of instructions fetched each cycle (Total) (Count)
system.cpu0.fetch.nisnDist::5                   60964      0.65%     94.33% # Number of instructions fetched each cycle (Total) (Count)
system.cpu0.fetch.nisnDist::6                   33749      0.36%     94.69% # Number of instructions fetched each cycle (Total) (Count)
system.cpu0.fetch.nisnDist::7                   43570      0.47%     95.16% # Number of instructions fetched each cycle (Total) (Count)
system.cpu0.fetch.nisnDist::8                  452001      4.84%    100.00% # Number of instructions fetched each cycle (Total) (Count)
system.cpu0.fetch.nisnDist::overflows               0      0.00%    100.00% # Number of instructions fetched each cycle (Total) (Count)
system.cpu0.fetch.nisnDist::min_value               0                       # Number of instructions fetched each cycle (Total) (Count)
system.cpu0.fetch.nisnDist::max_value               8                       # Number of instructions fetched each cycle (Total) (Count)
system.cpu0.fetch.nisnDist::total             9338083                       # Number of instructions fetched each cycle (Total) (Count)
system.cpu0.fetch.branchRate                 0.048668                       # Number of branch fetches per cycle (Ratio)
system.cpu0.fetch.rate                       0.286473                       # Number of inst fetches per cycle ((Count/Cycle))
system.cpu0.iew.idleCycles                          0                       # Number of cycles IEW is idle (Cycle)
system.cpu0.iew.squashCycles                    19118                       # Number of cycles IEW is squashing (Cycle)
system.cpu0.iew.blockCycles                   5350972                       # Number of cycles IEW is blocking (Cycle)
system.cpu0.iew.unblockCycles                  169113                       # Number of cycles IEW is unblocking (Cycle)
system.cpu0.iew.dispatchedInsts               4812683                       # Number of instructions dispatched to IQ (Count)
system.cpu0.iew.dispSquashedInsts                1020                       # Number of squashed instructions skipped by dispatch (Count)
system.cpu0.iew.dispLoadInsts                  656973                       # Number of dispatched load instructions (Count)
system.cpu0.iew.dispStoreInsts                 216838                       # Number of dispatched store instructions (Count)
system.cpu0.iew.dispNonSpecInsts                  898                       # Number of dispatched non-speculative instructions (Count)
system.cpu0.iew.iqFullEvents                     7342                       # Number of times the IQ has become full, causing a stall (Count)
system.cpu0.iew.lsqFullEvents                  156616                       # Number of times the LSQ has become full, causing a stall (Count)
system.cpu0.iew.memOrderViolationEvents           150                       # Number of memory order violations (Count)
system.cpu0.iew.predictedTakenIncorrect          7878                       # Number of branches that were predicted taken incorrectly (Count)
system.cpu0.iew.predictedNotTakenIncorrect        12771                       # Number of branches that were predicted not taken incorrectly (Count)
system.cpu0.iew.branchMispredicts               20649                       # Number of branch mispredicts detected at execute (Count)
system.cpu0.iew.instsToCommit                 4402909                       # Cumulative count of insts sent to commit (Count)
system.cpu0.iew.writebackCount                4390997                       # Cumulative count of insts written-back (Count)
system.cpu0.iew.producerInst                  3541839                       # Number of instructions producing a value (Count)
system.cpu0.iew.consumerInst                  6529923                       # Number of instructions consuming a value (Count)
system.cpu0.iew.wbRate                       0.416860                       # Insts written-back per cycle ((Count/Cycle))
system.cpu0.iew.wbFanout                     0.542401                       # Average fanout of values written-back ((Count/Count))
system.cpu0.interrupts.clk_domain.clock          8000                       # Clock period in ticks (Tick)
system.cpu0.lsq0.forwLoads                      58938                       # Number of loads that had data forwarded from stores (Count)
system.cpu0.lsq0.squashedLoads                 137167                       # Number of loads squashed (Count)
system.cpu0.lsq0.ignoredResponses                  98                       # Number of memory responses ignored because the instruction is squashed (Count)
system.cpu0.lsq0.memOrderViolation                150                       # Number of memory ordering violations (Count)
system.cpu0.lsq0.squashedStores                 37518                       # Number of stores squashed (Count)
system.cpu0.lsq0.rescheduledLoads                  15                       # Number of loads that were rescheduled (Count)
system.cpu0.lsq0.blockedByCache                  2107                       # Number of times an access to memory failed due to the cache being blocked (Count)
system.cpu0.lsq0.loadToUse::samples            519728                       # Distribution of cycle latency between the first time a load is issued and its completion (Unspecified)
system.cpu0.lsq0.loadToUse::mean            66.476497                       # Distribution of cycle latency between the first time a load is issued and its completion (Unspecified)
system.cpu0.lsq0.loadToUse::stdev          223.583748                       # Distribution of cycle latency between the first time a load is issued and its completion (Unspecified)
system.cpu0.lsq0.loadToUse::0-9                474420     91.28%     91.28% # Distribution of cycle latency between the first time a load is issued and its completion (Unspecified)
system.cpu0.lsq0.loadToUse::10-19                  79      0.02%     91.30% # Distribution of cycle latency between the first time a load is issued and its completion (Unspecified)
system.cpu0.lsq0.loadToUse::20-29                  76      0.01%     91.31% # Distribution of cycle latency between the first time a load is issued and its completion (Unspecified)
system.cpu0.lsq0.loadToUse::30-39                  60      0.01%     91.32% # Distribution of cycle latency between the first time a load is issued and its completion (Unspecified)
system.cpu0.lsq0.loadToUse::40-49                  61      0.01%     91.34% # Distribution of cycle latency between the first time a load is issued and its completion (Unspecified)
system.cpu0.lsq0.loadToUse::50-59                  76      0.01%     91.35% # Distribution of cycle latency between the first time a load is issued and its completion (Unspecified)
system.cpu0.lsq0.loadToUse::60-69                  74      0.01%     91.36% # Distribution of cycle latency between the first time a load is issued and its completion (Unspecified)
system.cpu0.lsq0.loadToUse::70-79                  46      0.01%     91.37% # Distribution of cycle latency between the first time a load is issued and its completion (Unspecified)
system.cpu0.lsq0.loadToUse::80-89                  82      0.02%     91.39% # Distribution of cycle latency between the first time a load is issued and its completion (Unspecified)
system.cpu0.lsq0.loadToUse::90-99                  64      0.01%     91.40% # Distribution of cycle latency between the first time a load is issued and its completion (Unspecified)
system.cpu0.lsq0.loadToUse::100-109                52      0.01%     91.41% # Distribution of cycle latency between the first time a load is issued and its completion (Unspecified)
system.cpu0.lsq0.loadToUse::110-119                62      0.01%     91.42% # Distribution of cycle latency between the first time a load is issued and its completion (Unspecified)
system.cpu0.lsq0.loadToUse::120-129                60      0.01%     91.43% # Distribution of cycle latency between the first time a load is issued and its completion (Unspecified)
system.cpu0.lsq0.loadToUse::130-139                57      0.01%     91.45% # Distribution of cycle latency between the first time a load is issued and its completion (Unspecified)
system.cpu0.lsq0.loadToUse::140-149                51      0.01%     91.46% # Distribution of cycle latency between the first time a load is issued and its completion (Unspecified)
system.cpu0.lsq0.loadToUse::150-159                64      0.01%     91.47% # Distribution of cycle latency between the first time a load is issued and its completion (Unspecified)
system.cpu0.lsq0.loadToUse::160-169                56      0.01%     91.48% # Distribution of cycle latency between the first time a load is issued and its completion (Unspecified)
system.cpu0.lsq0.loadToUse::170-179               121      0.02%     91.50% # Distribution of cycle latency between the first time a load is issued and its completion (Unspecified)
system.cpu0.lsq0.loadToUse::180-189               607      0.12%     91.62% # Distribution of cycle latency between the first time a load is issued and its completion (Unspecified)
system.cpu0.lsq0.loadToUse::190-199                30      0.01%     91.62% # Distribution of cycle latency between the first time a load is issued and its completion (Unspecified)
system.cpu0.lsq0.loadToUse::200-209                62      0.01%     91.64% # Distribution of cycle latency between the first time a load is issued and its completion (Unspecified)
system.cpu0.lsq0.loadToUse::210-219                59      0.01%     91.65% # Distribution of cycle latency between the first time a load is issued and its completion (Unspecified)
system.cpu0.lsq0.loadToUse::220-229                74      0.01%     91.66% # Distribution of cycle latency between the first time a load is issued and its completion (Unspecified)
system.cpu0.lsq0.loadToUse::230-239               105      0.02%     91.68% # Distribution of cycle latency between the first time a load is issued and its completion (Unspecified)
system.cpu0.lsq0.loadToUse::240-249               518      0.10%     91.78% # Distribution of cycle latency between the first time a load is issued and its completion (Unspecified)
system.cpu0.lsq0.loadToUse::250-259                52      0.01%     91.79% # Distribution of cycle latency between the first time a load is issued and its completion (Unspecified)
system.cpu0.lsq0.loadToUse::260-269                47      0.01%     91.80% # Distribution of cycle latency between the first time a load is issued and its completion (Unspecified)
system.cpu0.lsq0.loadToUse::270-279                79      0.02%     91.82% # Distribution of cycle latency between the first time a load is issued and its completion (Unspecified)
system.cpu0.lsq0.loadToUse::280-289                74      0.01%     91.83% # Distribution of cycle latency between the first time a load is issued and its completion (Unspecified)
system.cpu0.lsq0.loadToUse::290-299               127      0.02%     91.85% # Distribution of cycle latency between the first time a load is issued and its completion (Unspecified)
system.cpu0.lsq0.loadToUse::overflows           42333      8.15%    100.00% # Distribution of cycle latency between the first time a load is issued and its completion (Unspecified)
system.cpu0.lsq0.loadToUse::min_value               2                       # Distribution of cycle latency between the first time a load is issued and its completion (Unspecified)
system.cpu0.lsq0.loadToUse::max_value            2551                       # Distribution of cycle latency between the first time a load is issued and its completion (Unspecified)
system.cpu0.lsq0.loadToUse::total              519728                       # Distribution of cycle latency between the first time a load is issued and its completion (Unspecified)
system.cpu0.mmu.dtb.rdAccesses                 623621                       # TLB accesses on read requests (Count)
system.cpu0.mmu.dtb.wrAccesses                 204869                       # TLB accesses on write requests (Count)
system.cpu0.mmu.dtb.rdMisses                     3125                       # TLB misses on read requests (Count)
system.cpu0.mmu.dtb.wrMisses                      429                       # TLB misses on write requests (Count)
system.cpu0.mmu.dtb.walker.power_state.pwrStateResidencyTicks::UNDEFINED   5313881500                       # Cumulative time (in ticks) in various power states (Tick)
system.cpu0.mmu.itb.rdAccesses                      0                       # TLB accesses on read requests (Count)
system.cpu0.mmu.itb.wrAccesses                 267418                       # TLB accesses on write requests (Count)
system.cpu0.mmu.itb.rdMisses                        0                       # TLB misses on read requests (Count)
system.cpu0.mmu.itb.wrMisses                     3143                       # TLB misses on write requests (Count)
system.cpu0.mmu.itb.walker.power_state.pwrStateResidencyTicks::UNDEFINED   5313881500                       # Cumulative time (in ticks) in various power states (Tick)
system.cpu0.power_state.pwrStateResidencyTicks::ON   5313881500                       # Cumulative time (in ticks) in various power states (Tick)
system.cpu0.rename.squashCycles                 19118                       # Number of cycles rename is squashing (Cycle)
system.cpu0.rename.idleCycles                  562470                       # Number of cycles rename is idle (Cycle)
system.cpu0.rename.blockCycles                7107179                       # Number of cycles rename is blocking (Cycle)
system.cpu0.rename.serializeStallCycles         23661                       # count of cycles rename stalled for serializing inst (Cycle)
system.cpu0.rename.runCycles                   629135                       # Number of cycles rename is running (Cycle)
system.cpu0.rename.unblockCycles               996520                       # Number of cycles rename is unblocking (Cycle)
system.cpu0.rename.renamedInsts               4915873                       # Number of instructions processed by rename (Count)
system.cpu0.rename.ROBFullEvents               106168                       # Number of times rename has blocked due to ROB full (Count)
system.cpu0.rename.IQFullEvents                256071                       # Number of times rename has blocked due to IQ full (Count)
system.cpu0.rename.LQFullEvents                154421                       # Number of times rename has blocked due to LQ full (Count)
system.cpu0.rename.SQFullEvents                535717                       # Number of times rename has blocked due to SQ full (Count)
system.cpu0.rename.fullRegistersEvents           3023                       # Number of times there has been no free registers (Count)
system.cpu0.rename.renamedOperands           10391744                       # Number of destination operands rename has renamed (Count)
system.cpu0.rename.lookups                   18621067                       # Number of register rename lookups that rename has made (Count)
system.cpu0.rename.intLookups                 6942408                       # Number of integer rename lookups (Count)
system.cpu0.rename.fpLookups                   184362                       # Number of floating rename lookups (Count)
system.cpu0.rename.committedMaps              8043319                       # Number of HB maps that are committed (Count)
system.cpu0.rename.undoneMaps                 2348425                       # Number of HB maps that are undone due to squashing (Count)
system.cpu0.rename.serializing                    874                       # count of serializing insts renamed (Count)
system.cpu0.rename.tempSerializing                860                       # count of temporary serializing insts renamed (Count)
system.cpu0.rename.skidInsts                   909096                       # count of insts added to the skid buffer (Count)
system.cpu0.rob.reads                        13768790                       # The number of ROB reads (Count)
system.cpu0.rob.writes                        9757881                       # The number of ROB writes (Count)
system.cpu0.thread_0.numInsts                 2178739                       # Number of Instructions committed (Count)
system.cpu0.thread_0.numOps                   3768333                       # Number of Ops committed (Count)
system.cpu0.thread_0.numMemRefs                     0                       # Number of Memory References (Count)
system.cpu0.workload.numSyscalls                   63                       # Number of system calls (Count)
system.cpu1.numCycles                        10178290                       # Number of cpu cycles simulated (Cycle)
system.cpu1.numWorkItemsStarted                     0                       # Number of work items this cpu started (Count)
system.cpu1.numWorkItemsCompleted                   0                       # Number of work items this cpu completed (Count)
system.cpu1.instsAdded                        4812693                       # Number of instructions added to the IQ (excludes non-spec) (Count)
system.cpu1.nonSpecInstsAdded                    1093                       # Number of non-speculative instructions added to the IQ (Count)
system.cpu1.instsIssued                       4451054                       # Number of instructions issued (Count)
system.cpu1.squashedInstsIssued                  2822                       # Number of squashed instructions issued (Count)
system.cpu1.squashedInstsExamined             1045453                       # Number of squashed instructions iterated over during squash; mainly for profiling (Count)
system.cpu1.squashedOperandsExamined          2255740                       # Number of squashed operands that are examined and possibly removed from graph (Count)
system.cpu1.squashedNonSpecRemoved                240                       # Number of squashed non-spec instructions that were removed (Count)
system.cpu1.numIssuedDist::samples            9036076                       # Number of insts issued each cycle (Count)
system.cpu1.numIssuedDist::mean              0.492587                       # Number of insts issued each cycle (Count)
system.cpu1.numIssuedDist::stdev             1.422613                       # Number of insts issued each cycle (Count)
system.cpu1.numIssuedDist::underflows               0      0.00%      0.00% # Number of insts issued each cycle (Count)
system.cpu1.numIssuedDist::0                  7788803     86.20%     86.20% # Number of insts issued each cycle (Count)
system.cpu1.numIssuedDist::1                   198947      2.20%     88.40% # Number of insts issued each cycle (Count)
system.cpu1.numIssuedDist::2                   229036      2.53%     90.93% # Number of insts issued each cycle (Count)
system.cpu1.numIssuedDist::3                   242308      2.68%     93.61% # Number of insts issued each cycle (Count)
system.cpu1.numIssuedDist::4                   195103      2.16%     95.77% # Number of insts issued each cycle (Count)
system.cpu1.numIssuedDist::5                   148864      1.65%     97.42% # Number of insts issued each cycle (Count)
system.cpu1.numIssuedDist::6                   127017      1.41%     98.83% # Number of insts issued each cycle (Count)
system.cpu1.numIssuedDist::7                    67707      0.75%     99.58% # Number of insts issued each cycle (Count)
system.cpu1.numIssuedDist::8                    38291      0.42%    100.00% # Number of insts issued each cycle (Count)
system.cpu1.numIssuedDist::overflows                0      0.00%    100.00% # Number of insts issued each cycle (Count)
system.cpu1.numIssuedDist::min_value                0                       # Number of insts issued each cycle (Count)
system.cpu1.numIssuedDist::max_value                8                       # Number of insts issued each cycle (Count)
system.cpu1.numIssuedDist::total              9036076                       # Number of insts issued each cycle (Count)
system.cpu1.statFuBusy::No_OpClass                  0      0.00%      0.00% # attempts to use FU when none available (Count)
system.cpu1.statFuBusy::IntAlu                  41856     65.61%     65.61% # attempts to use FU when none available (Count)
system.cpu1.statFuBusy::IntMult                     0      0.00%     65.61% # attempts to use FU when none available (Count)
system.cpu1.statFuBusy::IntDiv                      0      0.00%     65.61% # attempts to use FU when none available (Count)
system.cpu1.statFuBusy::FloatAdd                    0      0.00%     65.61% # attempts to use FU when none available (Count)
system.cpu1.statFuBusy::FloatCmp                    0      0.00%     65.61% # attempts to use FU when none available (Count)
system.cpu1.statFuBusy::FloatCvt                    1      0.00%     65.61% # attempts to use FU when none available (Count)
system.cpu1.statFuBusy::FloatMult                   0      0.00%     65.61% # attempts to use FU when none available (Count)
system.cpu1.statFuBusy::FloatMultAcc                0      0.00%     65.61% # attempts to use FU when none available (Count)
system.cpu1.statFuBusy::FloatDiv                    0      0.00%     65.61% # attempts to use FU when none available (Count)
system.cpu1.statFuBusy::FloatMisc                   0      0.00%     65.61% # attempts to use FU when none available (Count)
system.cpu1.statFuBusy::FloatSqrt                   0      0.00%     65.61% # attempts to use FU when none available (Count)
system.cpu1.statFuBusy::SimdAdd                     0      0.00%     65.61% # attempts to use FU when none available (Count)
system.cpu1.statFuBusy::SimdAddAcc                  0      0.00%     65.61% # attempts to use FU when none available (Count)
system.cpu1.statFuBusy::SimdAlu                   120      0.19%     65.80% # attempts to use FU when none available (Count)
system.cpu1.statFuBusy::SimdCmp                     0      0.00%     65.80% # attempts to use FU when none available (Count)
system.cpu1.statFuBusy::SimdCvt                   126      0.20%     66.00% # attempts to use FU when none available (Count)
system.cpu1.statFuBusy::SimdMisc                    0      0.00%     66.00% # attempts to use FU when none available (Count)
system.cpu1.statFuBusy::SimdMult                    0      0.00%     66.00% # attempts to use FU when none available (Count)
system.cpu1.statFuBusy::SimdMultAcc                 0      0.00%     66.00% # attempts to use FU when none available (Count)
system.cpu1.statFuBusy::SimdShift                 135      0.21%     66.21% # attempts to use FU when none available (Count)
system.cpu1.statFuBusy::SimdShiftAcc                0      0.00%     66.21% # attempts to use FU when none available (Count)
system.cpu1.statFuBusy::SimdDiv                     0      0.00%     66.21% # attempts to use FU when none available (Count)
system.cpu1.statFuBusy::SimdSqrt                    0      0.00%     66.21% # attempts to use FU when none available (Count)
system.cpu1.statFuBusy::SimdFloatAdd                0      0.00%     66.21% # attempts to use FU when none available (Count)
system.cpu1.statFuBusy::SimdFloatAlu                0      0.00%     66.21% # attempts to use FU when none available (Count)
system.cpu1.statFuBusy::SimdFloatCmp                0      0.00%     66.21% # attempts to use FU when none available (Count)
system.cpu1.statFuBusy::SimdFloatCvt                0      0.00%     66.21% # attempts to use FU when none available (Count)
system.cpu1.statFuBusy::SimdFloatDiv                0      0.00%     66.21% # attempts to use FU when none available (Count)
system.cpu1.statFuBusy::SimdFloatMisc               0      0.00%     66.21% # attempts to use FU when none available (Count)
system.cpu1.statFuBusy::SimdFloatMult               0      0.00%     66.21% # attempts to use FU when none available (Count)
system.cpu1.statFuBusy::SimdFloatMultAcc            0      0.00%     66.21% # attempts to use FU when none available (Count)
system.cpu1.statFuBusy::SimdFloatSqrt               0      0.00%     66.21% # attempts to use FU when none available (Count)
system.cpu1.statFuBusy::SimdReduceAdd               0      0.00%     66.21% # attempts to use FU when none available (Count)
system.cpu1.statFuBusy::SimdReduceAlu               0      0.00%     66.21% # attempts to use FU when none available (Count)
system.cpu1.statFuBusy::SimdReduceCmp               0      0.00%     66.21% # attempts to use FU when none available (Count)
system.cpu1.statFuBusy::SimdFloatReduceAdd            0      0.00%     66.21% # attempts to use FU when none available (Count)
system.cpu1.statFuBusy::SimdFloatReduceCmp            0      0.00%     66.21% # attempts to use FU when none available (Count)
system.cpu1.statFuBusy::SimdAes                     0      0.00%     66.21% # attempts to use FU when none available (Count)
system.cpu1.statFuBusy::SimdAesMix                  0      0.00%     66.21% # attempts to use FU when none available (Count)
system.cpu1.statFuBusy::SimdSha1Hash                0      0.00%     66.21% # attempts to use FU when none available (Count)
system.cpu1.statFuBusy::SimdSha1Hash2               0      0.00%     66.21% # attempts to use FU when none available (Count)
system.cpu1.statFuBusy::SimdSha256Hash              0      0.00%     66.21% # attempts to use FU when none available (Count)
system.cpu1.statFuBusy::SimdSha256Hash2             0      0.00%     66.21% # attempts to use FU when none available (Count)
system.cpu1.statFuBusy::SimdShaSigma2               0      0.00%     66.21% # attempts to use FU when none available (Count)
system.cpu1.statFuBusy::SimdShaSigma3               0      0.00%     66.21% # attempts to use FU when none available (Count)
system.cpu1.statFuBusy::SimdPredAlu                 0      0.00%     66.21% # attempts to use FU when none available (Count)
system.cpu1.statFuBusy::MemRead                 11970     18.76%     84.97% # attempts to use FU when none available (Count)
system.cpu1.statFuBusy::MemWrite                 7745     12.14%     97.11% # attempts to use FU when none available (Count)
system.cpu1.statFuBusy::FloatMemRead             1403      2.20%     99.31% # attempts to use FU when none available (Count)
system.cpu1.statFuBusy::FloatMemWrite             439      0.69%    100.00% # attempts to use FU when none available (Count)
system.cpu1.statFuBusy::IprAccess                   0      0.00%    100.00% # attempts to use FU when none available (Count)
system.cpu1.statFuBusy::InstPrefetch                0      0.00%    100.00% # attempts to use FU when none available (Count)
system.cpu1.statIssuedInstType_0::No_OpClass        18276      0.41%      0.41% # Number of instructions issued per FU type, per thread (Count)
system.cpu1.statIssuedInstType_0::IntAlu      3490414     78.42%     78.83% # Number of instructions issued per FU type, per thread (Count)
system.cpu1.statIssuedInstType_0::IntMult           35      0.00%     78.83% # Number of instructions issued per FU type, per thread (Count)
system.cpu1.statIssuedInstType_0::IntDiv        38210      0.86%     79.69% # Number of instructions issued per FU type, per thread (Count)
system.cpu1.statIssuedInstType_0::FloatAdd         4324      0.10%     79.78% # Number of instructions issued per FU type, per thread (Count)
system.cpu1.statIssuedInstType_0::FloatCmp            0      0.00%     79.78% # Number of instructions issued per FU type, per thread (Count)
system.cpu1.statIssuedInstType_0::FloatCvt         1710      0.04%     79.82% # Number of instructions issued per FU type, per thread (Count)
system.cpu1.statIssuedInstType_0::FloatMult            0      0.00%     79.82% # Number of instructions issued per FU type, per thread (Count)
system.cpu1.statIssuedInstType_0::FloatMultAcc            0      0.00%     79.82% # Number of instructions issued per FU type, per thread (Count)
system.cpu1.statIssuedInstType_0::FloatDiv            0      0.00%     79.82% # Number of instructions issued per FU type, per thread (Count)
system.cpu1.statIssuedInstType_0::FloatMisc            0      0.00%     79.82% # Number of instructions issued per FU type, per thread (Count)
system.cpu1.statIssuedInstType_0::FloatSqrt            0      0.00%     79.82% # Number of instructions issued per FU type, per thread (Count)
system.cpu1.statIssuedInstType_0::SimdAdd         8186      0.18%     80.01% # Number of instructions issued per FU type, per thread (Count)
system.cpu1.statIssuedInstType_0::SimdAddAcc            0      0.00%     80.01% # Number of instructions issued per FU type, per thread (Count)
system.cpu1.statIssuedInstType_0::SimdAlu        16713      0.38%     80.38% # Number of instructions issued per FU type, per thread (Count)
system.cpu1.statIssuedInstType_0::SimdCmp            0      0.00%     80.38% # Number of instructions issued per FU type, per thread (Count)
system.cpu1.statIssuedInstType_0::SimdCvt        18225      0.41%     80.79% # Number of instructions issued per FU type, per thread (Count)
system.cpu1.statIssuedInstType_0::SimdMisc         8669      0.19%     80.99% # Number of instructions issued per FU type, per thread (Count)
system.cpu1.statIssuedInstType_0::SimdMult            0      0.00%     80.99% # Number of instructions issued per FU type, per thread (Count)
system.cpu1.statIssuedInstType_0::SimdMultAcc            0      0.00%     80.99% # Number of instructions issued per FU type, per thread (Count)
system.cpu1.statIssuedInstType_0::SimdShift         2471      0.06%     81.04% # Number of instructions issued per FU type, per thread (Count)
system.cpu1.statIssuedInstType_0::SimdShiftAcc            0      0.00%     81.04% # Number of instructions issued per FU type, per thread (Count)
system.cpu1.statIssuedInstType_0::SimdDiv            0      0.00%     81.04% # Number of instructions issued per FU type, per thread (Count)
system.cpu1.statIssuedInstType_0::SimdSqrt            0      0.00%     81.04% # Number of instructions issued per FU type, per thread (Count)
system.cpu1.statIssuedInstType_0::SimdFloatAdd            0      0.00%     81.04% # Number of instructions issued per FU type, per thread (Count)
system.cpu1.statIssuedInstType_0::SimdFloatAlu            0      0.00%     81.04% # Number of instructions issued per FU type, per thread (Count)
system.cpu1.statIssuedInstType_0::SimdFloatCmp            0      0.00%     81.04% # Number of instructions issued per FU type, per thread (Count)
system.cpu1.statIssuedInstType_0::SimdFloatCvt            0      0.00%     81.04% # Number of instructions issued per FU type, per thread (Count)
system.cpu1.statIssuedInstType_0::SimdFloatDiv            0      0.00%     81.04% # Number of instructions issued per FU type, per thread (Count)
system.cpu1.statIssuedInstType_0::SimdFloatMisc            0      0.00%     81.04% # Number of instructions issued per FU type, per thread (Count)
system.cpu1.statIssuedInstType_0::SimdFloatMult            0      0.00%     81.04% # Number of instructions issued per FU type, per thread (Count)
system.cpu1.statIssuedInstType_0::SimdFloatMultAcc            0      0.00%     81.04% # Number of instructions issued per FU type, per thread (Count)
system.cpu1.statIssuedInstType_0::SimdFloatSqrt            0      0.00%     81.04% # Number of instructions issued per FU type, per thread (Count)
system.cpu1.statIssuedInstType_0::SimdReduceAdd            0      0.00%     81.04% # Number of instructions issued per FU type, per thread (Count)
system.cpu1.statIssuedInstType_0::SimdReduceAlu            0      0.00%     81.04% # Number of instructions issued per FU type, per thread (Count)
system.cpu1.statIssuedInstType_0::SimdReduceCmp            0      0.00%     81.04% # Number of instructions issued per FU type, per thread (Count)
system.cpu1.statIssuedInstType_0::SimdFloatReduceAdd            0      0.00%     81.04% # Number of instructions issued per FU type, per thread (Count)
system.cpu1.statIssuedInstType_0::SimdFloatReduceCmp            0      0.00%     81.04% # Number of instructions issued per FU type, per thread (Count)
system.cpu1.statIssuedInstType_0::SimdAes            0      0.00%     81.04% # Number of instructions issued per FU type, per thread (Count)
system.cpu1.statIssuedInstType_0::SimdAesMix            0      0.00%     81.04% # Number of instructions issued per FU type, per thread (Count)
system.cpu1.statIssuedInstType_0::SimdSha1Hash            0      0.00%     81.04% # Number of instructions issued per FU type, per thread (Count)
system.cpu1.statIssuedInstType_0::SimdSha1Hash2            0      0.00%     81.04% # Number of instructions issued per FU type, per thread (Count)
system.cpu1.statIssuedInstType_0::SimdSha256Hash            0      0.00%     81.04% # Number of instructions issued per FU type, per thread (Count)
system.cpu1.statIssuedInstType_0::SimdSha256Hash2            0      0.00%     81.04% # Number of instructions issued per FU type, per thread (Count)
system.cpu1.statIssuedInstType_0::SimdShaSigma2            0      0.00%     81.04% # Number of instructions issued per FU type, per thread (Count)
system.cpu1.statIssuedInstType_0::SimdShaSigma3            0      0.00%     81.04% # Number of instructions issued per FU type, per thread (Count)
system.cpu1.statIssuedInstType_0::SimdPredAlu            0      0.00%     81.04% # Number of instructions issued per FU type, per thread (Count)
system.cpu1.statIssuedInstType_0::MemRead       603777     13.56%     94.61% # Number of instructions issued per FU type, per thread (Count)
system.cpu1.statIssuedInstType_0::MemWrite       188977      4.25%     98.85% # Number of instructions issued per FU type, per thread (Count)
system.cpu1.statIssuedInstType_0::FloatMemRead        33147      0.74%     99.60% # Number of instructions issued per FU type, per thread (Count)
system.cpu1.statIssuedInstType_0::FloatMemWrite        17920      0.40%    100.00% # Number of instructions issued per FU type, per thread (Count)
system.cpu1.statIssuedInstType_0::IprAccess            0      0.00%    100.00% # Number of instructions issued per FU type, per thread (Count)
system.cpu1.statIssuedInstType_0::InstPrefetch            0      0.00%    100.00% # Number of instructions issued per FU type, per thread (Count)
system.cpu1.statIssuedInstType_0::total       4451054                       # Number of instructions issued per FU type, per thread (Count)
system.cpu1.issueRate                        0.437309                       # Inst issue rate ((Count/Cycle))
system.cpu1.fuBusy                              63795                       # FU busy when requested (Count)
system.cpu1.fuBusyRate                       0.014333                       # FU busy rate (busy events/executed inst) ((Count/Count))
system.cpu1.intInstQueueReads                17777328                       # Number of integer instruction queue reads (Count)
system.cpu1.intInstQueueWrites                5686519                       # Number of integer instruction queue writes (Count)
system.cpu1.intInstQueueWakeupAccesses        4282526                       # Number of integer instruction queue wakeup accesses (Count)
system.cpu1.fpInstQueueReads                   227473                       # Number of floating instruction queue reads (Count)
system.cpu1.fpInstQueueWrites                  172857                       # Number of floating instruction queue writes (Count)
system.cpu1.fpInstQueueWakeupAccesses          108753                       # Number of floating instruction queue wakeup accesses (Count)
system.cpu1.vecInstQueueReads                       0                       # Number of vector instruction queue reads (Count)
system.cpu1.vecInstQueueWrites                      0                       # Number of vector instruction queue writes (Count)
system.cpu1.vecInstQueueWakeupAccesses              0                       # Number of vector instruction queue wakeup accesses (Count)
system.cpu1.intAluAccesses                    4381872                       # Number of integer alu accesses (Count)
system.cpu1.fpAluAccesses                      114701                       # Number of floating point alu accesses (Count)
system.cpu1.vecAluAccesses                          0                       # Number of vector alu accesses (Count)
system.cpu1.numInsts                          4420766                       # Number of executed instructions (Count)
system.cpu1.numLoadInsts                       629295                       # Number of load instructions executed (Count)
system.cpu1.numSquashedInsts                    30288                       # Number of squashed instructions skipped in execute (Count)
system.cpu1.numSwp                                  0                       # Number of swp insts executed (Count)
system.cpu1.numNop                                  0                       # Number of nop insts executed (Count)
system.cpu1.numRefs                            834191                       # Number of memory reference insts executed (Count)
system.cpu1.numBranches                        396328                       # Number of branches executed (Count)
[...]
system.ruby.network.ext_out_link_utilization      4200347                       (Unspecified)
system.ruby.network.flit_network_latency |105480605000                       |208860400000                       | 28880510000                       (Unspecified)
system.ruby.network.flit_queueing_latency |  2146073500                       |  1985455500                       |   148294500                       (Unspecified)
system.ruby.network.flits_injected       |      997110     23.74%     23.74% |     2906653     69.20%     92.94% |      296590      7.06%    100.00% (Unspecified)
system.ruby.network.flits_injected::total      4200353                       (Unspecified)
system.ruby.network.flits_received       |      997110     23.74%     23.74% |     2906648     69.20%     92.94% |      296589      7.06%    100.00% (Unspecified)
system.ruby.network.flits_received::total      4200347                       (Unspecified)
system.ruby.network.int_link_utilization     12740274                       (Unspecified)
system.ruby.network.packet_network_latency | 79048802000                       | 69053445000                       | 28880510000                       (Unspecified)
system.ruby.network.packet_queueing_latency |  1760281500                       |   529457500                       |   148294500                       (Unspecified)
system.ruby.network.packets_injected     |      812114     42.28%     42.28% |      812113     42.28%     84.56% |      296590     15.44%    100.00% (Unspecified)
system.ruby.network.packets_injected::total      1920817                       (Unspecified)
system.ruby.network.packets_received     |      812114     42.28%     42.28% |      812112     42.28%     84.56% |      296589     15.44%    100.00% (Unspecified)
system.ruby.network.packets_received::total      1920815                       (Unspecified)
system.ruby.network.routers00.Var_1                 0                       (Unspecified)
system.ruby.network.routers00.Var_2                 0                       (Unspecified)
system.ruby.network.routers00.Var_3                 0                       (Unspecified)
system.ruby.network.routers00.all_counts            0                       (Unspecified)
system.ruby.network.routers00.buffer_reads       752932                       (Unspecified)
system.ruby.network.routers00.buffer_writes       752932                       (Unspecified)
system.ruby.network.routers00.crossbar_activity       752932                       (Unspecified)
system.ruby.network.routers00.detour_counts        53541                       (Unspecified)
system.ruby.network.routers00.regular_var            0                       (Unspecified)
system.ruby.network.routers00.risk_counts            0                       (Unspecified)
system.ruby.network.routers00.sw_input_arbiter_activity       758551                       (Unspecified)
system.ruby.network.routers00.sw_output_arbiter_activity       752932                       (Unspecified)
system.ruby.network.routers01.Var_1                 0                       (Unspecified)
system.ruby.network.routers01.Var_2                 0                       (Unspecified)
system.ruby.network.routers01.Var_3                 0                       (Unspecified)
system.ruby.network.routers01.all_counts            0                       (Unspecified)
system.ruby.network.routers01.buffer_reads      1081808                       (Unspecified)
system.ruby.network.routers01.buffer_writes      1081808                       (Unspecified)
system.ruby.network.routers01.crossbar_activity      1081808                       (Unspecified)
system.ruby.network.routers01.detour_counts        53693                       (Unspecified)
system.ruby.network.routers01.regular_var            0                       (Unspecified)
system.ruby.network.routers01.risk_counts            0                       (Unspecified)
system.ruby.network.routers01.sw_input_arbiter_activity      1094239                       (Unspecified)
system.ruby.network.routers01.sw_output_arbiter_activity      1081808                       (Unspecified)
system.ruby.network.routers02.Var_1                 0                       (Unspecified)
system.ruby.network.routers02.Var_2                 0                       (Unspecified)
system.ruby.network.routers02.Var_3                 0                       (Unspecified)
system.ruby.network.routers02.all_counts            0                       (Unspecified)
system.ruby.network.routers02.buffer_reads      1083328                       (Unspecified)
system.ruby.network.routers02.buffer_writes      1083328                       (Unspecified)
system.ruby.network.routers02.crossbar_activity      1083328                       (Unspecified)
system.ruby.network.routers02.detour_counts        53589                       (Unspecified)
system.ruby.network.routers02.regular_var            0                       (Unspecified)
system.ruby.network.routers02.risk_counts            0                       (Unspecified)
system.ruby.network.routers02.sw_input_arbiter_activity      1095848                       (Unspecified)
system.ruby.network.routers02.sw_output_arbiter_activity      1083328                       (Unspecified)
system.ruby.network.routers03.Var_1                 0                       (Unspecified)
system.ruby.network.routers03.Var_2                 0                       (Unspecified)
system.ruby.network.routers03.Var_3                 0                       (Unspecified)
system.ruby.network.routers03.all_counts            0                       (Unspecified)
system.ruby.network.routers03.buffer_reads       743454                       (Unspecified)
system.ruby.network.routers03.buffer_writes       743454                       (Unspecified)
system.ruby.network.routers03.crossbar_activity       743454                       (Unspecified)
system.ruby.network.routers03.detour_counts        53682                       (Unspecified)
system.ruby.network.routers03.regular_var            0                       (Unspecified)
system.ruby.network.routers03.risk_counts            0                       (Unspecified)
system.ruby.network.routers03.sw_input_arbiter_activity       748877                       (Unspecified)
system.ruby.network.routers03.sw_output_arbiter_activity       743454                       (Unspecified)
system.ruby.network.routers04.Var_1                 0                       (Unspecified)
system.ruby.network.routers04.Var_2                 0                       (Unspecified)
system.ruby.network.routers04.Var_3                 0                       (Unspecified)
system.ruby.network.routers04.all_counts            0                       (Unspecified)
system.ruby.network.routers04.buffer_reads      1051175                       (Unspecified)
system.ruby.network.routers04.buffer_writes      1051175                       (Unspecified)
system.ruby.network.routers04.crossbar_activity      1051175                       (Unspecified)
system.ruby.network.routers04.detour_counts        53683                       (Unspecified)
system.ruby.network.routers04.regular_var            0                       (Unspecified)
system.ruby.network.routers04.risk_counts            0                       (Unspecified)
system.ruby.network.routers04.sw_input_arbiter_activity      1062420                       (Unspecified)
system.ruby.network.routers04.sw_output_arbiter_activity      1051175                       (Unspecified)
system.ruby.network.routers05.Var_1                 0                       (Unspecified)
system.ruby.network.routers05.Var_2                 0                       (Unspecified)
system.ruby.network.routers05.Var_3                 0                       (Unspecified)
system.ruby.network.routers05.all_counts            0                       (Unspecified)
system.ruby.network.routers05.buffer_reads      1375805                       (Unspecified)
system.ruby.network.routers05.buffer_writes      1375805                       (Unspecified)
system.ruby.network.routers05.crossbar_activity      1375805                       (Unspecified)
system.ruby.network.routers05.detour_counts        53776                       (Unspecified)
system.ruby.network.routers05.regular_var            0                       (Unspecified)
system.ruby.network.routers05.risk_counts            0                       (Unspecified)
system.ruby.network.routers05.sw_input_arbiter_activity      1393747                       (Unspecified)
system.ruby.network.routers05.sw_output_arbiter_activity      1375805                       (Unspecified)
system.ruby.network.routers06.Var_1                 0                       (Unspecified)
system.ruby.network.routers06.Var_2                 0                       (Unspecified)
system.ruby.network.routers06.Var_3                 0                       (Unspecified)
system.ruby.network.routers06.all_counts            0                       (Unspecified)
system.ruby.network.routers06.buffer_reads      1375590                       (Unspecified)
system.ruby.network.routers06.buffer_writes      1375590                       (Unspecified)
system.ruby.network.routers06.crossbar_activity      1375590                       (Unspecified)
system.ruby.network.routers06.detour_counts        53673                       (Unspecified)
system.ruby.network.routers06.regular_var            0                       (Unspecified)
system.ruby.network.routers06.risk_counts            0                       (Unspecified)
system.ruby.network.routers06.sw_input_arbiter_activity      1394393                       (Unspecified)
system.ruby.network.routers06.sw_output_arbiter_activity      1375590                       (Unspecified)
system.ruby.network.routers07.Var_1                 0                       (Unspecified)
system.ruby.network.routers07.Var_2                 0                       (Unspecified)
system.ruby.network.routers07.Var_3                 0                       (Unspecified)
system.ruby.network.routers07.all_counts            0                       (Unspecified)
system.ruby.network.routers07.buffer_reads      1041403                       (Unspecified)
system.ruby.network.routers07.buffer_writes      1041403                       (Unspecified)
system.ruby.network.routers07.crossbar_activity      1041403                       (Unspecified)
system.ruby.network.routers07.detour_counts        53672                       (Unspecified)
system.ruby.network.routers07.regular_var            0                       (Unspecified)
system.ruby.network.routers07.risk_counts            0                       (Unspecified)
system.ruby.network.routers07.sw_input_arbiter_activity      1052824                       (Unspecified)
system.ruby.network.routers07.sw_output_arbiter_activity      1041403                       (Unspecified)
system.ruby.network.routers08.Var_1                 0                       (Unspecified)
system.ruby.network.routers08.Var_2                 0                       (Unspecified)
system.ruby.network.routers08.Var_3                 0                       (Unspecified)
system.ruby.network.routers08.all_counts            0                       (Unspecified)
system.ruby.network.routers08.buffer_reads      1046687                       (Unspecified)
system.ruby.network.routers08.buffer_writes      1046687                       (Unspecified)
system.ruby.network.routers08.crossbar_activity      1046687                       (Unspecified)
system.ruby.network.routers08.detour_counts        53688                       (Unspecified)
system.ruby.network.routers08.regular_var            0                       (Unspecified)
system.ruby.network.routers08.risk_counts            0                       (Unspecified)
system.ruby.network.routers08.sw_input_arbiter_activity      1058166                       (Unspecified)
system.ruby.network.routers08.sw_output_arbiter_activity      1046687                       (Unspecified)
system.ruby.network.routers09.Var_1                 0                       (Unspecified)
system.ruby.network.routers09.Var_2                 0                       (Unspecified)
system.ruby.network.routers09.Var_3                 0                       (Unspecified)
system.ruby.network.routers09.all_counts            0                       (Unspecified)
system.ruby.network.routers09.buffer_reads      1376270                       (Unspecified)
system.ruby.network.routers09.buffer_writes      1376270                       (Unspecified)
system.ruby.network.routers09.crossbar_activity      1376270                       (Unspecified)
system.ruby.network.routers09.detour_counts        53545                       (Unspecified)
system.ruby.network.routers09.regular_var            0                       (Unspecified)
system.ruby.network.routers09.risk_counts            0                       (Unspecified)
system.ruby.network.routers09.sw_input_arbiter_activity      1394565                       (Unspecified)
system.ruby.network.routers09.sw_output_arbiter_activity      1376270                       (Unspecified)
system.ruby.network.routers10.Var_1                 0                       (Unspecified)
system.ruby.network.routers10.Var_2                 0                       (Unspecified)
system.ruby.network.routers10.Var_3                 0                       (Unspecified)
system.ruby.network.routers10.all_counts            0                       (Unspecified)
system.ruby.network.routers10.buffer_reads      1370725                       (Unspecified)
system.ruby.network.routers10.buffer_writes      1370725                       (Unspecified)
system.ruby.network.routers10.crossbar_activity      1370725                       (Unspecified)
system.ruby.network.routers10.detour_counts        53642                       (Unspecified)
system.ruby.network.routers10.regular_var            0                       (Unspecified)
system.ruby.network.routers10.risk_counts            0                       (Unspecified)
system.ruby.network.routers10.sw_input_arbiter_activity      1388887                       (Unspecified)
system.ruby.network.routers10.sw_output_arbiter_activity      1370725                       (Unspecified)
system.ruby.network.routers11.Var_1                 0                       (Unspecified)
system.ruby.network.routers11.Var_2                 0                       (Unspecified)
system.ruby.network.routers11.Var_3                 0                       (Unspecified)
system.ruby.network.routers11.all_counts            0                       (Unspecified)
system.ruby.network.routers11.buffer_reads      1033022                       (Unspecified)
system.ruby.network.routers11.buffer_writes      1033022                       (Unspecified)
system.ruby.network.routers11.crossbar_activity      1033022                       (Unspecified)
system.ruby.network.routers11.detour_counts        53789                       (Unspecified)
system.ruby.network.routers11.regular_var            0                       (Unspecified)
system.ruby.network.routers11.risk_counts            0                       (Unspecified)
system.ruby.network.routers11.sw_input_arbiter_activity      1044076                       (Unspecified)
system.ruby.network.routers11.sw_output_arbiter_activity      1033022                       (Unspecified)
system.ruby.network.routers12.Var_1                 0                       (Unspecified)
system.ruby.network.routers12.Var_2                 0                       (Unspecified)
system.ruby.network.routers12.Var_3                 0                       (Unspecified)
system.ruby.network.routers12.all_counts            0                       (Unspecified)
system.ruby.network.routers12.buffer_reads       739431                       (Unspecified)
system.ruby.network.routers12.buffer_writes       739431                       (Unspecified)
system.ruby.network.routers12.crossbar_activity       739431                       (Unspecified)
system.ruby.network.routers12.detour_counts        53711                       (Unspecified)
system.ruby.network.routers12.regular_var            0                       (Unspecified)
system.ruby.network.routers12.risk_counts            0                       (Unspecified)
system.ruby.network.routers12.sw_input_arbiter_activity       744862                       (Unspecified)
system.ruby.network.routers12.sw_output_arbiter_activity       739431                       (Unspecified)
system.ruby.network.routers13.Var_1                 0                       (Unspecified)
system.ruby.network.routers13.Var_2                 0                       (Unspecified)
system.ruby.network.routers13.Var_3                 0                       (Unspecified)
system.ruby.network.routers13.all_counts            0                       (Unspecified)
system.ruby.network.routers13.buffer_reads      1069619                       (Unspecified)
system.ruby.network.routers13.buffer_writes      1069619                       (Unspecified)
system.ruby.network.routers13.crossbar_activity      1069619                       (Unspecified)
system.ruby.network.routers13.detour_counts        53605                       (Unspecified)
system.ruby.network.routers13.regular_var            0                       (Unspecified)
system.ruby.network.routers13.risk_counts            0                       (Unspecified)
system.ruby.network.routers13.sw_input_arbiter_activity      1081961                       (Unspecified)
system.ruby.network.routers13.sw_output_arbiter_activity      1069619                       (Unspecified)
system.ruby.network.routers14.Var_1                 0                       (Unspecified)
system.ruby.network.routers14.Var_2                 0                       (Unspecified)
system.ruby.network.routers14.Var_3                 0                       (Unspecified)
system.ruby.network.routers14.all_counts            0                       (Unspecified)
system.ruby.network.routers14.buffer_reads      1063969                       (Unspecified)
system.ruby.network.routers14.buffer_writes      1063969                       (Unspecified)
system.ruby.network.routers14.crossbar_activity      1063969                       (Unspecified)
system.ruby.network.routers14.detour_counts        53765                       (Unspecified)
system.ruby.network.routers14.regular_var            0                       (Unspecified)
system.ruby.network.routers14.risk_counts            0                       (Unspecified)
system.ruby.network.routers14.sw_input_arbiter_activity      1076155                       (Unspecified)
system.ruby.network.routers14.sw_output_arbiter_activity      1063969                       (Unspecified)
system.ruby.network.routers15.Var_1                 0                       (Unspecified)
system.ruby.network.routers15.Var_2                 0                       (Unspecified)
system.ruby.network.routers15.Var_3                 0                       (Unspecified)
system.ruby.network.routers15.all_counts            0                       (Unspecified)
system.ruby.network.routers15.buffer_reads       735403                       (Unspecified)
system.ruby.network.routers15.buffer_writes       735403                       (Unspecified)
system.ruby.network.routers15.crossbar_activity       735403                       (Unspecified)
system.ruby.network.routers15.detour_counts        53820                       (Unspecified)
system.ruby.network.routers15.regular_var            0                       (Unspecified)
system.ruby.network.routers15.risk_counts            0                       (Unspecified)
system.ruby.network.routers15.sw_input_arbiter_activity       740804                       (Unspecified)
system.ruby.network.routers15.sw_output_arbiter_activity       735403                       (Unspecified)

---------- End Simulation Statistics   ----------
