
---------- Begin Simulation Statistics ----------
simSeconds                                   0.005354                       # Number of seconds simulated (Second)
simTicks                                   5353517500                       # Number of ticks simulated (Tick)
finalTick                                  5353517500                       # Number of ticks from beginning of simulation (restored from checkpoints and never reset) (Tick)
simFreq                                  1000000000000                       # The number of ticks per simulated second ((Tick/Second))
hostSeconds                                    738.48                       # Real time elapsed on the host (Second)
hostTickRate                                  7249350                       # The number of ticks simulated per host second (ticks/s) ((Tick/Second))
hostMemory                                   11459424                       # Number of bytes of host memory used (Byte)
simInsts                                     36408592                       # Number of instructions simulated (Count)
simOps                                       62668944                       # Number of ops (including micro ops) simulated (Count)
hostInstRate                                    49302                       # Simulator instruction rate (inst/s) ((Count/Second))
hostOpRate                                      84862                       # Simulator op (including micro ops) rate (op/s) ((Count/Second))
system.clk_domain.clock                          1000                       # Clock period in ticks (Tick)
system.cpu0.numCycles                        10587925                       # Number of cpu cycles simulated (Cycle)
system.cpu0.numWorkItemsStarted                     0                       # Number of work items this cpu started (Count)
system.cpu0.numWorkItemsCompleted                   0                       # Number of work items this cpu completed (Count)
system.cpu0.instsAdded                        4959938                       # Number of instructions added to the IQ (excludes non-spec) (Count)
system.cpu0.nonSpecInstsAdded                    1093                       # Number of non-speculative instructions added to the IQ (Count)
system.cpu0.instsIssued                       4599004                       # Number of instructions issued (Count)
system.cpu0.squashedInstsIssued                  2833                       # Number of squashed instructions issued (Count)
system.cpu0.squashedInstsExamined             1044222                       # Number of squashed instructions iterated over during squash; mainly for profiling (Count)
system.cpu0.squashedOperandsExamined          2252521                       # Number of squashed operands that are examined and possibly removed from graph (Count)
system.cpu0.squashedNonSpecRemoved                240                       # Number of squashed non-spec instructions that were removed (Count)
system.cpu0.numIssuedDist::samples            9377811                       # Number of insts issued each cycle (Count)
system.cpu0.numIssuedDist::mean              0.490413                       # Number of insts issued each cycle (Count)
system.cpu0.numIssuedDist::stdev             1.421348                       # Number of insts issued each cycle (Count)
system.cpu0.numIssuedDist::underflows               0      0.00%      0.00% # Number of insts issued each cycle (Count)
system.cpu0.numIssuedDist::0                  8087367     86.24%     86.24% # Number of insts issued each cycle (Count)
system.cpu0.numIssuedDist::1                   209444      2.23%     88.47% # Number of insts issued each cycle (Count)
system.cpu0.numIssuedDist::2                   236871      2.53%     91.00% # Number of insts issued each cycle (Count)
system.cpu0.numIssuedDist::3                   249897      2.66%     93.66% # Number of insts issued each cycle (Count)
system.cpu0.numIssuedDist::4                   200826      2.14%     95.80% # Number of insts issued each cycle (Count)
system.cpu0.numIssuedDist::5                   152405      1.63%     97.43% # Number of insts issued each cycle (Count)
system.cpu0.numIssuedDist::6                   127742      1.36%     98.79% # Number of insts issued each cycle (Count)
system.cpu0.numIssuedDist::7                    71726      0.76%     99.56% # Number of insts issued each cycle (Count)
system.cpu0.numIssuedDist::8                    41533      0.44%    100.00% # Number of insts issued each cycle (Count)
system.cpu0.numIssuedDist::overflows                0      0.00%    100.00% # Number of insts issued each cycle (Count)
system.cpu0.numIssuedDist::min_value                0                       # Number of insts issued each cycle (Count)
system.cpu0.numIssuedDist::max_value                8                       # Number of insts issued each cycle (Count)
system.cpu0.numIssuedDist::total              9377811                       # Number of insts issued each cycle (Count)
system.cpu0.statFuBusy::No_OpClass                  0      0.00%      0.00% # attempts to use FU when none available (Count)
system.cpu0.statFuBusy::IntAlu                  41943     61.25%     61.25% # attempts to use FU when none available (Count)
system.cpu0.statFuBusy::IntMult                     0      0.00%     61.25% # attempts to use FU when none available (Count)
system.cpu0.statFuBusy::IntDiv                      0      0.00%     61.25% # attempts to use FU when none available (Count)
system.cpu0.statFuBusy::FloatAdd                    0      0.00%     61.25% # attempts to use FU when none available (Count)
system.cpu0.statFuBusy::FloatCmp                    0      0.00%     61.25% # attempts to use FU when none available (Count)
system.cpu0.statFuBusy::FloatCvt                    0      0.00%     61.25% # attempts to use FU when none available (Count)
system.cpu0.statFuBusy::FloatMult                   0      0.00%     61.25% # attempts to use FU when none available (Count)
system.cpu0.statFuBusy::FloatMultAcc                0      0.00%     61.25% # attempts to use FU when none available (Count)
system.cpu0.statFuBusy::FloatDiv                    0      0.00%     61.25% # attempts to use FU when none available (Count)
system.cpu0.statFuBusy::FloatMisc                   0      0.00%     61.25% # attempts to use FU when none available (Count)
system.cpu0.statFuBusy::FloatSqrt                   0      0.00%     61.25% # attempts to use FU when none available (Count)
system.cpu0.statFuBusy::SimdAdd                     0      0.00%     61.25% # attempts to use FU when none available (Count)
system.cpu0.statFuBusy::SimdAddAcc                  0      0.00%     61.25% # attempts to use FU when none available (Count)
system.cpu0.statFuBusy::SimdAlu                   123      0.18%     61.43% # attempts to use FU when none available (Count)
system.cpu0.statFuBusy::SimdCmp                     0      0.00%     61.43% # attempts to use FU when none available (Count)
system.cpu0.statFuBusy::SimdCvt                   123      0.18%     61.61% # attempts to use FU when none available (Count)
system.cpu0.statFuBusy::SimdMisc                    0      0.00%     61.61% # attempts to use FU when none available (Count)
system.cpu0.statFuBusy::SimdMult                    0      0.00%     61.61% # attempts to use FU when none available (Count)
system.cpu0.statFuBusy::SimdMultAcc                 0      0.00%     61.61% # attempts to use FU when none available (Count)
system.cpu0.statFuBusy::SimdShift                 140      0.20%     61.81% # attempts to use FU when none available (Count)
system.cpu0.statFuBusy::SimdShiftAcc                0      0.00%     61.81% # attempts to use FU when none available (Count)
system.cpu0.statFuBusy::SimdDiv                     0      0.00%     61.81% # attempts to use FU when none available (Count)
system.cpu0.statFuBusy::SimdSqrt                    0      0.00%     61.81% # attempts to use FU when none available (Count)
system.cpu0.statFuBusy::SimdFloatAdd                0      0.00%     61.81% # attempts to use FU when none available (Count)
system.cpu0.statFuBusy::SimdFloatAlu                0      0.00%     61.81% # attempts to use FU when none available (Count)
system.cpu0.statFuBusy::SimdFloatCmp                0      0.00%     61.81% # attempts to use FU when none available (Count)
system.cpu0.statFuBusy::SimdFloatCvt                0      0.00%     61.81% # attempts to use FU when none available (Count)
system.cpu0.statFuBusy::SimdFloatDiv                0      0.00%     61.81% # attempts to use FU when none available (Count)
system.cpu0.statFuBusy::SimdFloatMisc               0      0.00%     61.81% # attempts to use FU when none available (Count)
system.cpu0.statFuBusy::SimdFloatMult               0      0.00%     61.81% # attempts to use FU when none available (Count)
system.cpu0.statFuBusy::SimdFloatMultAcc            0      0.00%     61.81% # attempts to use FU when none available (Count)
system.cpu0.statFuBusy::SimdFloatSqrt               0      0.00%     61.81% # attempts to use FU when none available (Count)
system.cpu0.statFuBusy::SimdReduceAdd               0      0.00%     61.81% # attempts to use FU when none available (Count)
system.cpu0.statFuBusy::SimdReduceAlu               0      0.00%     61.81% # attempts to use FU when none available (Count)
system.cpu0.statFuBusy::SimdReduceCmp               0      0.00%     61.81% # attempts to use FU when none available (Count)
system.cpu0.statFuBusy::SimdFloatReduceAdd            0      0.00%     61.81% # attempts to use FU when none available (Count)
system.cpu0.statFuBusy::SimdFloatReduceCmp            0      0.00%     61.81% # attempts to use FU when none available (Count)
system.cpu0.statFuBusy::SimdAes                     0      0.00%     61.81% # attempts to use FU when none available (Count)
system.cpu0.statFuBusy::SimdAesMix                  0      0.00%     61.81% # attempts to use FU when none available (Count)
system.cpu0.statFuBusy::SimdSha1Hash                0      0.00%     61.81% # attempts to use FU when none available (Count)
system.cpu0.statFuBusy::SimdSha1Hash2               0      0.00%     61.81% # attempts to use FU when none available (Count)
system.cpu0.statFuBusy::SimdSha256Hash              0      0.00%     61.81% # attempts to use FU when none available (Count)
system.cpu0.statFuBusy::SimdSha256Hash2             0      0.00%     61.81% # attempts to use FU when none available (Count)
system.cpu0.statFuBusy::SimdShaSigma2               0      0.00%     61.81% # attempts to use FU when none available (Count)
system.cpu0.statFuBusy::SimdShaSigma3               0      0.00%     61.81% # attempts to use FU when none available (Count)
system.cpu0.statFuBusy::SimdPredAlu                 0      0.00%     61.81% # attempts to use FU when none available (Count)
system.cpu0.statFuBusy::MemRead                 15554     22.71%     84.53% # attempts to use FU when none available (Count)
system.cpu0.statFuBusy::MemWrite                 8746     12.77%     97.30% # attempts to use FU when none available (Count)
system.cpu0.statFuBusy::FloatMemRead             1408      2.06%     99.36% # attempts to use FU when none available (Count)
system.cpu0.statFuBusy::FloatMemWrite             441      0.64%    100.00% # attempts to use FU when none available (Count)
system.cpu0.statFuBusy::IprAccess                   0      0.00%    100.00% # attempts to use FU when none available (Count)
system.cpu0.statFuBusy::InstPrefetch                0      0.00%    100.00% # attempts to use FU when none available (Count)
system.cpu0.statIssuedInstType_0::No_OpClass        18199      0.40%      0.40% # Number of instructions issued per FU type, per thread (Count)
system.cpu0.statIssuedInstType_0::IntAlu      3563095     77.48%     77.87% # Number of instructions issued per FU type, per thread (Count)
system.cpu0.statIssuedInstType_0::IntMult           41      0.00%     77.87% # Number of instructions issued per FU type, per thread (Count)
system.cpu0.statIssuedInstType_0::IntDiv        38188      0.83%     78.70% # Number of instructions issued per FU type, per thread (Count)
system.cpu0.statIssuedInstType_0::FloatAdd         4323      0.09%     78.80% # Number of instructions issued per FU type, per thread (Count)
system.cpu0.statIssuedInstType_0::FloatCmp            0      0.00%     78.80% # Number of instructions issued per FU type, per thread (Count)
system.cpu0.statIssuedInstType_0::FloatCvt         1684      0.04%     78.83% # Number of instructions issued per FU type, per thread (Count)
system.cpu0.statIssuedInstType_0::FloatMult            0      0.00%     78.83% # Number of instructions issued per FU type, per thread (Count)
system.cpu0.statIssuedInstType_0::FloatMultAcc            0      0.00%     78.83% # Number of instructions issued per FU type, per thread (Count)
system.cpu0.statIssuedInstType_0::FloatDiv            0      0.00%     78.83% # Number of instructions issued per FU type, per thread (Count)
system.cpu0.statIssuedInstType_0::FloatMisc            0      0.00%     78.83% # Number of instructions issued per FU type, per thread (Count)
system.cpu0.statIssuedInstType_0::FloatSqrt            0      0.00%     78.83% # Number of instructions issued per FU type, per thread (Count)
system.cpu0.statIssuedInstType_0::SimdAdd         8188      0.18%     79.01% # Number of instructions issued per FU type, per thread (Count)
system.cpu0.statIssuedInstType_0::SimdAddAcc            0      0.00%     79.01% # Number of instructions issued per FU type, per thread (Count)
system.cpu0.statIssuedInstType_0::SimdAlu        16693      0.36%     79.37% # Number of instructions issued per FU type, per thread (Count)
system.cpu0.statIssuedInstType_0::SimdCmp            0      0.00%     79.37% # Number of instructions issued per FU type, per thread (Count)
system.cpu0.statIssuedInstType_0::SimdCvt        18239      0.40%     79.77% # Number of instructions issued per FU type, per thread (Count)
system.cpu0.statIssuedInstType_0::SimdMisc         8667      0.19%     79.96% # Number of instructions issued per FU type, per thread (Count)
system.cpu0.statIssuedInstType_0::SimdMult            0      0.00%     79.96% # Number of instructions issued per FU type, per thread (Count)
system.cpu0.statIssuedInstType_0::SimdMultAcc            0      0.00%     79.96% # Number of instructions issued per FU type, per thread (Count)
system.cpu0.statIssuedInstType_0::SimdShift         2459      0.05%     80.01% # Number of instructions issued per FU type, per thread (Count)
system.cpu0.statIssuedInstType_0::SimdShiftAcc            0      0.00%     80.01% # Number of instructions issued per FU type, per thread (Count)
system.cpu0.statIssuedInstType_0::SimdDiv            0      0.00%     80.01% # Number of instructions issued per FU type, per thread (Count)
system.cpu0.statIssuedInstType_0::SimdSqrt            0      0.00%     80.01% # Number of instructions issued per FU type, per thread (Count)
system.cpu0.statIssuedInstType_0::SimdFloatAdd            0      0.00%     80.01% # Number of instructions issued per FU type, per thread (Count)
system.cpu0.statIssuedInstType_0::SimdFloatAlu            0      0.00%     80.01% # Number of instructions issued per FU type, per thread (Count)
system.cpu0.statIssuedInstType_0::SimdFloatCmp            0      0.00%     80.01% # Number of instructions issued per FU type, per thread (Count)
system.cpu0.statIssuedInstType_0::SimdFloatCvt            0      0.00%     80.01% # Number of instructions issued per FU type, per thread (Count)
system.cpu0.statIssuedInstType_0::SimdFloatDiv            0      0.00%     80.01% # Number of instructions issued per FU type, per thread (Count)
system.cpu0.statIssuedInstType_0::SimdFloatMisc            0      0.00%     80.01% # Number of instructions issued per FU type, per thread (Count)
system.cpu0.statIssuedInstType_0::SimdFloatMult            0      0.00%     80.01% # Number of instructions issued per FU type, per thread (Count)
system.cpu0.statIssuedInstType_0::SimdFloatMultAcc            0      0.00%     80.01% # Number of instructions issued per FU type, per thread (Count)
system.cpu0.statIssuedInstType_0::SimdFloatSqrt            0      0.00%     80.01% # Number of instructions issued per FU type, per thread (Count)
system.cpu0.statIssuedInstType_0::SimdReduceAdd            0      0.00%     80.01% # Number of instructions issued per FU type, per thread (Count)
system.cpu0.statIssuedInstType_0::SimdReduceAlu            0      0.00%     80.01% # Number of instructions issued per FU type, per thread (Count)
system.cpu0.statIssuedInstType_0::SimdReduceCmp            0      0.00%     80.01% # Number of instructions issued per FU type, per thread (Count)
system.cpu0.statIssuedInstType_0::SimdFloatReduceAdd            0      0.00%     80.01% # Number of instructions issued per FU type, per thread (Count)
system.cpu0.statIssuedInstType_0::SimdFloatReduceCmp            0      0.00%     80.01% # Number of instructions issued per FU type, per thread (Count)
system.cpu0.statIssuedInstType_0::SimdAes            0      0.00%     80.01% # Number of instructions issued per FU type, per thread (Count)
system.cpu0.statIssuedInstType_0::SimdAesMix            0      0.00%     80.01% # Number of instructions issued per FU type, per thread (Count)
system.cpu0.statIssuedInstType_0::SimdSha1Hash            0      0.00%     80.01% # Number of instructions issued per FU type, per thread (Count)
system.cpu0.statIssuedInstType_0::SimdSha1Hash2            0      0.00%     80.01% # Number of instructions issued per FU type, per thread (Count)
system.cpu0.statIssuedInstType_0::SimdSha256Hash            0      0.00%     80.01% # Number of instructions issued per FU type, per thread (Count)
system.cpu0.statIssuedInstType_0::SimdSha256Hash2            0      0.00%     80.01% # Number of instructions issued per FU type, per thread (Count)
system.cpu0.statIssuedInstType_0::SimdShaSigma2            0      0.00%     80.01% # Number of instructions issued per FU type, per thread (Count)
system.cpu0.statIssuedInstType_0::SimdShaSigma3            0      0.00%     80.01% # Number of instructions issued per FU type, per thread (Count)
system.cpu0.statIssuedInstType_0::SimdPredAlu            0      0.00%     80.01% # Number of instructions issued per FU type, per thread (Count)
system.cpu0.statIssuedInstType_0::MemRead       645130     14.03%     94.04% # Number of instructions issued per FU type, per thread (Count)
system.cpu0.statIssuedInstType_0::MemWrite       223000      4.85%     98.89% # Number of instructions issued per FU type, per thread (Count)
system.cpu0.statIssuedInstType_0::FloatMemRead        33152      0.72%     99.61% # Number of instructions issued per FU type, per thread (Count)
system.cpu0.statIssuedInstType_0::FloatMemWrite        17946      0.39%    100.00% # Number of instructions issued per FU type, per thread (Count)
system.cpu0.statIssuedInstType_0::IprAccess            0      0.00%    100.00% # Number of instructions issued per FU type, per thread (Count)
system.cpu0.statIssuedInstType_0::InstPrefetch            0      0.00%    100.00% # Number of instructions issued per FU type, per thread (Count)
system.cpu0.statIssuedInstType_0::total       4599004                       # Number of instructions issued per FU type, per thread (Count)
system.cpu0.issueRate                        0.434363                       # Inst issue rate ((Count/Cycle))
system.cpu0.fuBusy                              68478                       # FU busy when requested (Count)
system.cpu0.fuBusyRate                       0.014890                       # FU busy rate (busy events/executed inst) ((Count/Count))
system.cpu0.intInstQueueReads                18419673                       # Number of integer instruction queue reads (Count)
system.cpu0.intInstQueueWrites                5833033                       # Number of integer instruction queue writes (Count)
system.cpu0.intInstQueueWakeupAccesses        4430405                       # Number of integer instruction queue wakeup accesses (Count)
system.cpu0.fpInstQueueReads                   227457                       # Number of floating instruction queue reads (Count)
system.cpu0.fpInstQueueWrites                  172389                       # Number of floating instruction queue writes (Count)
system.cpu0.fpInstQueueWakeupAccesses          108750                       # Number of floating instruction queue wakeup accesses (Count)
system.cpu0.vecInstQueueReads                       0                       # Number of vector instruction queue reads (Count)
system.cpu0.vecInstQueueWrites                      0                       # Number of vector instruction queue writes (Count)
system.cpu0.vecInstQueueWakeupAccesses              0                       # Number of vector instruction queue wakeup accesses (Count)
system.cpu0.intAluAccesses                    4534580                       # Number of integer alu accesses (Count)
system.cpu0.fpAluAccesses                      114703                       # Number of floating point alu accesses (Count)
system.cpu0.vecAluAccesses                          0                       # Number of vector alu accesses (Count)
system.cpu0.numInsts                          4568597                       # Number of executed instructions (Count)
system.cpu0.numLoadInsts                       670591                       # Number of load instructions executed (Count)
system.cpu0.numSquashedInsts                    30407                       # Number of squashed instructions skipped in execute (Count)
system.cpu0.numSwp                                  0                       # Number of swp insts executed (Count)
system.cpu0.numNop                                  0                       # Number of nop insts executed (Count)
system.cpu0.numRefs                            909537                       # Number of memory reference insts executed (Count)
system.cpu0.numBranches                        402360                       # Number of branches executed (Count)
system.cpu0.numStoreInsts                      238946                       # Number of stores executed (Count)
system.cpu0.numRate                          0.431491                       # Inst execution rate ((Count/Cycle))
system.cpu0.timesIdled                           2376                       # Number of times that the entire CPU went into an idle state and unscheduled itself (Count)
system.cpu0.idleCycles                        1210114                       # Total number of cycles that the CPU has spent unscheduled due to idling (Cycle)
system.cpu0.committedInsts                    2275537                       # Number of Instructions Simulated (Count)
system.cpu0.committedOps                      3916809                       # Number of Ops (including micro ops) Simulated (Count)
system.cpu0.cpi                              4.652935                       # CPI: Cycles Per Instruction ((Cycle/Count))
system.cpu0.totalCpi                         4.652935                       # CPI: Total CPI of All Threads ((Cycle/Count))
system.cpu0.ipc                              0.214918                       # IPC: Instructions Per Cycle ((Count/Cycle))
system.cpu0.totalIpc                         0.214918                       # IPC: Total IPC of All Threads ((Count/Cycle))
system.cpu0.intRegfileReads                   6206619                       # Number of integer regfile reads (Count)
system.cpu0.intRegfileWrites                  3544196                       # Number of integer regfile writes (Count)
system.cpu0.fpRegfileReads                     147102                       # Number of floating regfile reads (Count)
system.cpu0.fpRegfileWrites                     81837                       # Number of floating regfile writes (Count)
system.cpu0.ccRegfileReads                    2555220                       # number of cc regfile reads (Count)
system.cpu0.ccRegfileWrites                   2119285                       # number of cc regfile writes (Count)
system.cpu0.miscRegfileReads                  1758212                       # number of misc regfile reads (Count)
system.cpu0.miscRegfileWrites                     846                       # number of misc regfile writes (Count)
system.cpu0.MemDepUnit__0.insertedLoads        698288                       # Number of loads inserted to the mem dependence unit. (Count)
system.cpu0.MemDepUnit__0.insertedStores       251098                       # Number of stores inserted to the mem dependence unit. (Count)
system.cpu0.MemDepUnit__0.conflictingLoads        29982                       # Number of conflicting loads. (Count)
system.cpu0.MemDepUnit__0.conflictingStores        20469                       # Number of conflicting stores. (Count)
system.cpu0.MemDepUnit__1.insertedLoads             0                       # Number of loads inserted to the mem dependence unit. (Count)
system.cpu0.MemDepUnit__1.insertedStores            0                       # Number of stores inserted to the mem dependence unit. (Count)
system.cpu0.MemDepUnit__1.conflictingLoads            0                       # Number of conflicting loads. (Count)
system.cpu0.MemDepUnit__1.conflictingStores            0                       # Number of conflicting stores. (Count)
system.cpu0.MemDepUnit__2.insertedLoads             0                       # Number of loads inserted to the mem dependence unit. (Count)
system.cpu0.MemDepUnit__2.insertedStores            0                       # Number of stores inserted to the mem dependence unit. (Count)
system.cpu0.MemDepUnit__2.conflictingLoads            0                       # Number of conflicting loads. (Count)
system.cpu0.MemDepUnit__2.conflictingStores            0                       # Number of conflicting stores. (Count)
system.cpu0.MemDepUnit__3.insertedLoads             0                       # Number of loads inserted to the mem dependence unit. (Count)
system.cpu0.MemDepUnit__3.insertedStores            0                       # Number of stores inserted to the mem dependence unit. (Count)
system.cpu0.MemDepUnit__3.conflictingLoads            0                       # Number of conflicting loads. (Count)
system.cpu0.MemDepUnit__3.conflictingStores            0                       # Number of conflicting stores. (Count)
system.cpu0.branchPred.lookups                 518540                       # Number of BP lookups (Count)
system.cpu0.branchPred.condPredicted           458046                       # Number of conditional branches predicted (Count)
system.cpu0.branchPred.condIncorrect            17044                       # Number of conditional branches incorrect (Count)
system.cpu0.branchPred.BTBLookups              273729                       # Number of BTB lookups (Count)
system.cpu0.branchPred.BTBUpdates                8660                       # Number of BTB updates (Count)
system.cpu0.branchPred.BTBHits                 269624                       # Number of BTB hits (Count)
system.cpu0.branchPred.BTBHitRatio           0.985003                       # BTB Hit Ratio (Ratio)
system.cpu0.branchPred.RASUsed                  13762                       # Number of times the RAS was used to get a target. (Count)
system.cpu0.branchPred.RASIncorrect                 8                       # Number of incorrect RAS predictions. (Count)
system.cpu0.branchPred.indirectLookups           9870                       # Number of indirect predictor lookups. (Count)
system.cpu0.branchPred.indirectHits              5188                       # Number of indirect target hits. (Count)
system.cpu0.branchPred.indirectMisses            4682                       # Number of indirect misses. (Count)
system.cpu0.branchPred.indirectMispredicted         1178                       # Number of mispredicted indirect branches. (Count)
system.cpu0.commit.commitSquashedInsts        1035157                       # The number of squashed insts skipped by commit (Count)
system.cpu0.commit.commitNonSpecStalls            853                       # The number of times commit has been forced to stall to communicate backwards (Count)
system.cpu0.commit.branchMispredicts            18379                       # The number of times a branch was mispredicted (Count)
system.cpu0.commit.numCommittedDist::samples      9227538                       # Number of insts commited each cycle (Count)
system.cpu0.commit.numCommittedDist::mean     0.424470                       # Number of insts commited each cycle (Count)
system.cpu0.commit.numCommittedDist::stdev     1.487066                       # Number of insts commited each cycle (Count)
system.cpu0.commit.numCommittedDist::underflows            0      0.00%      0.00% # Number of insts commited each cycle (Count)
system.cpu0.commit.numCommittedDist::0        8220009     89.08%     89.08% # Number of insts commited each cycle (Count)
system.cpu0.commit.numCommittedDist::1         253429      2.75%     91.83% # Number of insts commited each cycle (Count)
system.cpu0.commit.numCommittedDist::2          94696      1.03%     92.85% # Number of insts commited each cycle (Count)
system.cpu0.commit.numCommittedDist::3         254031      2.75%     95.61% # Number of insts commited each cycle (Count)
system.cpu0.commit.numCommittedDist::4          45447      0.49%     96.10% # Number of insts commited each cycle (Count)
system.cpu0.commit.numCommittedDist::5          99150      1.07%     97.17% # Number of insts commited each cycle (Count)
system.cpu0.commit.numCommittedDist::6          15859      0.17%     97.35% # Number of insts commited each cycle (Count)
system.cpu0.commit.numCommittedDist::7          20133      0.22%     97.56% # Number of insts commited each cycle (Count)
system.cpu0.commit.numCommittedDist::8         224784      2.44%    100.00% # Number of insts commited each cycle (Count)
system.cpu0.commit.numCommittedDist::overflows            0      0.00%    100.00% # Number of insts commited each cycle (Count)
system.cpu0.commit.numCommittedDist::min_value            0                       # Number of insts commited each cycle (Count)
system.cpu0.commit.numCommittedDist::max_value            8                       # Number of insts commited each cycle (Count)
system.cpu0.commit.numCommittedDist::total      9227538                       # Number of insts commited each cycle (Count)
system.cpu0.commit.instsCommitted             2275537                       # Number of instructions committed (Count)
system.cpu0.commit.opsCommitted               3916809                       # Number of ops (including micro ops) committed (Count)
system.cpu0.commit.memRefs                     774470                       # Number of memory references committed (Count)
system.cpu0.commit.loads                       561048                       # Number of loads committed (Count)
system.cpu0.commit.amos                             0                       # Number of atomic instructions committed (Count)
system.cpu0.commit.membars                          2                       # Number of memory barriers committed (Count)
system.cpu0.commit.branches                    366588                       # Number of branches committed (Count)
system.cpu0.commit.vectorInstructions               0                       # Number of committed Vector instructions. (Count)
system.cpu0.commit.floating                     80389                       # Number of committed floating point instructions. (Count)
system.cpu0.commit.integer                    3858051                       # Number of committed integer instructions. (Count)
system.cpu0.commit.functionCalls                 9950                       # Number of function calls committed. (Count)
system.cpu0.commit.committedInstType_0::No_OpClass        10769      0.27%      0.27% # Class of committed instruction (Count)
system.cpu0.commit.committedInstType_0::IntAlu      3051164     77.90%     78.17% # Class of committed instruction (Count)
system.cpu0.commit.committedInstType_0::IntMult           31      0.00%     78.17% # Class of committed instruction (Count)
system.cpu0.commit.committedInstType_0::IntDiv        35830      0.91%     79.09% # Class of committed instruction (Count)
system.cpu0.commit.committedInstType_0::FloatAdd         3175      0.08%     79.17% # Class of committed instruction (Count)
system.cpu0.commit.committedInstType_0::FloatCmp            0      0.00%     79.17% # Class of committed instruction (Count)
system.cpu0.commit.committedInstType_0::FloatCvt         1504      0.04%     79.21% # Class of committed instruction (Count)
system.cpu0.commit.committedInstType_0::FloatMult            0      0.00%     79.21% # Class of committed instruction (Count)
system.cpu0.commit.committedInstType_0::FloatMultAcc            0      0.00%     79.21% # Class of committed instruction (Count)
system.cpu0.commit.committedInstType_0::FloatDiv            0      0.00%     79.21% # Class of committed instruction (Count)
system.cpu0.commit.committedInstType_0::FloatMisc            0      0.00%     79.21% # Class of committed instruction (Count)
system.cpu0.commit.committedInstType_0::FloatSqrt            0      0.00%     79.21% # Class of committed instruction (Count)
system.cpu0.commit.committedInstType_0::SimdAdd         6610      0.17%     79.38% # Class of committed instruction (Count)
system.cpu0.commit.committedInstType_0::SimdAddAcc            0      0.00%     79.38% # Class of committed instruction (Count)
system.cpu0.commit.committedInstType_0::SimdAlu        11926      0.30%     79.68% # Class of committed instruction (Count)
system.cpu0.commit.committedInstType_0::SimdCmp            0      0.00%     79.68% # Class of committed instruction (Count)
system.cpu0.commit.committedInstType_0::SimdCvt        12916      0.33%     80.01% # Class of committed instruction (Count)
system.cpu0.commit.committedInstType_0::SimdMisc         7061      0.18%     80.19% # Class of committed instruction (Count)
system.cpu0.commit.committedInstType_0::SimdMult            0      0.00%     80.19% # Class of committed instruction (Count)
system.cpu0.commit.committedInstType_0::SimdMultAcc            0      0.00%     80.19% # Class of committed instruction (Count)
system.cpu0.commit.committedInstType_0::SimdShift         1353      0.03%     80.23% # Class of committed instruction (Count)
system.cpu0.commit.committedInstType_0::SimdShiftAcc            0      0.00%     80.23% # Class of committed instruction (Count)
system.cpu0.commit.committedInstType_0::SimdDiv            0      0.00%     80.23% # Class of committed instruction (Count)
system.cpu0.commit.committedInstType_0::SimdSqrt            0      0.00%     80.23% # Class of committed instruction (Count)
system.cpu0.commit.committedInstType_0::SimdFloatAdd            0      0.00%     80.23% # Class of committed instruction (Count)
system.cpu0.commit.committedInstType_0::SimdFloatAlu            0      0.00%     80.23% # Class of committed instruction (Count)
system.cpu0.commit.committedInstType_0::SimdFloatCmp            0      0.00%     80.23% # Class of committed instruction (Count)
system.cpu0.commit.committedInstType_0::SimdFloatCvt            0      0.00%     80.23% # Class of committed instruction (Count)
system.cpu0.commit.committedInstType_0::SimdFloatDiv            0      0.00%     80.23% # Class of committed instruction (Count)
system.cpu0.commit.committedInstType_0::SimdFloatMisc            0      0.00%     80.23% # Class of committed instruction (Count)
system.cpu0.commit.committedInstType_0::SimdFloatMult            0      0.00%     80.23% # Class of committed instruction (Count)
system.cpu0.commit.committedInstType_0::SimdFloatMultAcc            0      0.00%     80.23% # Class of committed instruction (Count)
system.cpu0.commit.committedInstType_0::SimdFloatSqrt            0      0.00%     80.23% # Class of committed instruction (Count)
system.cpu0.commit.committedInstType_0::SimdReduceAdd            0      0.00%     80.23% # Class of committed instruction (Count)
system.cpu0.commit.committedInstType_0::SimdReduceAlu            0      0.00%     80.23% # Class of committed instruction (Count)
system.cpu0.commit.committedInstType_0::SimdReduceCmp            0      0.00%     80.23% # Class of committed instruction (Count)
system.cpu0.commit.committedInstType_0::SimdFloatReduceAdd            0      0.00%     80.23% # Class of committed instruction (Count)
system.cpu0.commit.committedInstType_0::SimdFloatReduceCmp            0      0.00%     80.23% # Class of committed instruction (Count)
system.cpu0.commit.committedInstType_0::SimdAes            0      0.00%     80.23% # Class of committed instruction (Count)
system.cpu0.commit.committedInstType_0::SimdAesMix            0      0.00%     80.23% # Class of committed instruction (Count)
system.cpu0.commit.committedInstType_0::SimdSha1Hash            0      0.00%     80.23% # Class of committed instruction (Count)
system.cpu0.commit.committedInstType_0::SimdSha1Hash2            0      0.00%     80.23% # Class of committed instruction (Count)
system.cpu0.commit.committedInstType_0::SimdSha256Hash            0      0.00%     80.23% # Class of committed instruction (Count)
system.cpu0.commit.committedInstType_0::SimdSha256Hash2            0      0.00%     80.23% # Class of committed instruction (Count)
system.cpu0.commit.committedInstType_0::SimdShaSigma2            0      0.00%     80.23% # Class of committed instruction (Count)
system.cpu0.commit.committedInstType_0::SimdShaSigma3            0      0.00%     80.23% # Class of committed instruction (Count)
system.cpu0.commit.committedInstType_0::SimdPredAlu            0      0.00%     80.23% # Class of committed instruction (Count)
system.cpu0.commit.committedInstType_0::MemRead       540007     13.79%     94.01% # Class of committed instruction (Count)
system.cpu0.commit.committedInstType_0::MemWrite       199488      5.09%     99.11% # Class of committed instruction (Count)
system.cpu0.commit.committedInstType_0::FloatMemRead        21041      0.54%     99.64% # Class of committed instruction (Count)
system.cpu0.commit.committedInstType_0::FloatMemWrite        13934      0.36%    100.00% # Class of committed instruction (Count)
system.cpu0.commit.committedInstType_0::IprAccess            0      0.00%    100.00% # Class of committed instruction (Count)
system.cpu0.commit.committedInstType_0::InstPrefetch            0      0.00%    100.00% # Class of committed instruction (Count)
system.cpu0.commit.committedInstType_0::total      3916809                       # Class of committed instruction (Count)
system.cpu0.commit.commitEligibleSamples       224784                       # number cycles where commit BW limit reached (Cycle)
system.cpu0.decode.idleCycles                  483916                       # Number of cycles decode is idle (Cycle)
system.cpu0.decode.blockedCycles              8143124                       # Number of cycles decode is blocked (Cycle)
system.cpu0.decode.runCycles                   523289                       # Number of cycles decode is running (Cycle)
system.cpu0.decode.unblockCycles               208362                       # Number of cycles decode is unblocking (Cycle)
system.cpu0.decode.squashCycles                 19120                       # Number of cycles decode is squashing (Cycle)
system.cpu0.decode.branchResolved              255836                       # Number of times decode resolved a branch (Count)
system.cpu0.decode.branchMispred                 1206                       # Number of times decode detected a branch misprediction (Count)
system.cpu0.decode.decodedInsts               5144198                       # Number of instructions handled by decode (Count)
system.cpu0.decode.squashedInsts                 5656                       # Number of squashed instructions handled by decode (Count)
system.cpu0.fetch.icacheStallCycles            468572                       # Number of cycles fetch is stalled on an Icache miss (Cycle)
system.cpu0.fetch.insts                       3114454                       # Number of instructions fetch has processed (Count)
system.cpu0.fetch.branches                     518540                       # Number of branches that fetch encountered (Count)
system.cpu0.fetch.predictedBranches            288574                       # Number of branches that fetch has predicted taken (Count)
system.cpu0.fetch.cycles                      8638840                       # Number of cycles fetch has run and was not squashing or blocked (Cycle)
system.cpu0.fetch.squashCycles                  40606                       # Number of cycles fetch has spent squashing (Cycle)
system.cpu0.fetch.miscStallCycles               15327                       # Number of cycles fetch has spent waiting on interrupts, or bad addresses, or out of MSHRs (Cycle)
system.cpu0.fetch.pendingTrapStallCycles        16706                       # Number of stall cycles due to pending traps (Cycle)
system.cpu0.fetch.icacheWaitRetryStallCycles       218063                       # Number of stall cycles due to full MSHR (Cycle)
system.cpu0.fetch.cacheLines                   269654                       # Number of cache lines fetched (Count)
system.cpu0.fetch.icacheSquashes                 4700                       # Number of outstanding Icache misses that were squashed (Count)
system.cpu0.fetch.nisnDist::samples           9377811                       # Number of instructions fetched each cycle (Total) (Count)
system.cpu0.fetch.nisnDist::mean             0.581136                       # Number of instructions fetched each cycle (Total) (Count)
system.cpu0.fetch.nisnDist::stdev            1.923240                       # Number of instructions fetched each cycle (Total) (Count)
system.cpu0.fetch.nisnDist::underflows              0      0.00%      0.00% # Number of instructions fetched each cycle (Total) (Count)
system.cpu0.fetch.nisnDist::0                 8477098     90.40%     90.40% # Number of instructions fetched each cycle (Total) (Count)
system.cpu0.fetch.nisnDist::1                   42968      0.46%     90.85% # Number of instructions fetched each cycle (Total) (Count)
system.cpu0.fetch.nisnDist::2                   41252      0.44%     91.29% # Number of instructions fetched each cycle (Total) (Count)
system.cpu0.fetch.nisnDist::3                   69417      0.74%     92.03% # Number of instructions fetched each cycle (Total) (Count)
system.cpu0.fetch.nisnDist::4                  139445      1.49%     93.52% # Number of instructions fetched each cycle (Total) (Count)
system.cpu0.fetch.nisnDist::5                   61913      0.66%     94.18% # Number of instructions fetched each cycle (Total) (Count)
system.cpu0.fetch.nisnDist::6                   35995      0.38%     94.56% # Number of instructions fetched each cycle (Total) (Count)
system.cpu0.fetch.nisnDist::7                   45037      0.48%     95.04% # Number of instructions fetched each cycle (Total) (Count)
system.cpu0.fetch.nisnDist::8                  464686      4.96%    100.00% # Number of instructions fetched each cycle (Total) (Count)
system.cpu0.fetch.nisnDist::overflows               0      0.00%    100.00% # Number of instructions fetched each cycle (Total) (Count)
system.cpu0.fetch.nisnDist::min_value               0                       # Number of instructions fetched each cycle (Total) (Count)
system.cpu0.fetch.nisnDist::max_value               8                       # Number of instructions fetched each cycle (Total) (Count)
system.cpu0.fetch.nisnDist::total             9377811                       # Number of instructions fetched each cycle (Total) (Count)
system.cpu0.fetch.branchRate                 0.048975                       # Number of branch fetches per cycle (Ratio)
system.cpu0.fetch.rate                       0.294151                       # Number of inst fetches per cycle ((Count/Cycle))
system.cpu0.iew.idleCycles                          0                       # Number of cycles IEW is idle (Cycle)
system.cpu0.iew.squashCycles                    19120                       # Number of cycles IEW is squashing (Cycle)
system.cpu0.iew.blockCycles                   5359107                       # Number of cycles IEW is blocking (Cycle)
system.cpu0.iew.unblockCycles                  159964                       # Number of cycles IEW is unblocking (Cycle)
system.cpu0.iew.dispatchedInsts               4961031                       # Number of instructions dispatched to IQ (Count)
system.cpu0.iew.dispSquashedInsts                 998                       # Number of squashed instructions skipped by dispatch (Count)
system.cpu0.iew.dispLoadInsts                  698288                       # Number of dispatched load instructions (Count)
system.cpu0.iew.dispStoreInsts                 251098                       # Number of dispatched store instructions (Count)
system.cpu0.iew.dispNonSpecInsts                  898                       # Number of dispatched non-speculative instructions (Count)
system.cpu0.iew.iqFullEvents                     7281                       # Number of times the IQ has become full, causing a stall (Count)
system.cpu0.iew.lsqFullEvents                  147532                       # Number of times the LSQ has become full, causing a stall (Count)
system.cpu0.iew.memOrderViolationEvents           178                       # Number of memory order violations (Count)
system.cpu0.iew.predictedTakenIncorrect          7852                       # Number of branches that were predicted taken incorrectly (Count)
system.cpu0.iew.predictedNotTakenIncorrect        12754                       # Number of branches that were predicted not taken incorrectly (Count)
system.cpu0.iew.branchMispredicts               20606                       # Number of branch mispredicts detected at execute (Count)
system.cpu0.iew.instsToCommit                 4551103                       # Cumulative count of insts sent to commit (Count)
system.cpu0.iew.writebackCount                4539155                       # Cumulative count of insts written-back (Count)
system.cpu0.iew.producerInst                  3636014                       # Number of instructions producing a value (Count)
system.cpu0.iew.consumerInst                  6665974                       # Number of instructions consuming a value (Count)
system.cpu0.iew.wbRate                       0.428711                       # Insts written-back per cycle ((Count/Cycle))
system.cpu0.iew.wbFanout                     0.545459                       # Average fanout of values written-back ((Count/Count))
system.cpu0.interrupts.clk_domain.clock          8000                       # Clock period in ticks (Tick)
system.cpu0.lsq0.forwLoads                      83001                       # Number of loads that had data forwarded from stores (Count)
system.cpu0.lsq0.squashedLoads                 137240                       # Number of loads squashed (Count)
system.cpu0.lsq0.ignoredResponses                  97                       # Number of memory responses ignored because the instruction is squashed (Count)
system.cpu0.lsq0.memOrderViolation                178                       # Number of memory ordering violations (Count)
system.cpu0.lsq0.squashedStores                 37676                       # Number of stores squashed (Count)
system.cpu0.lsq0.rescheduledLoads                  15                       # Number of loads that were rescheduled (Count)
system.cpu0.lsq0.blockedByCache                  2100                       # Number of times an access to memory failed due to the cache being blocked (Count)
system.cpu0.lsq0.loadToUse::samples            560970                       # Distribution of cycle latency between the first time a load is issued and its completion (Unspecified)
system.cpu0.lsq0.loadToUse::mean            61.651981                       # Distribution of cycle latency between the first time a load is issued and its completion (Unspecified)
system.cpu0.lsq0.loadToUse::stdev          215.729934                       # Distribution of cycle latency between the first time a load is issued and its completion (Unspecified)
system.cpu0.lsq0.loadToUse::0-9                515820     91.95%     91.95% # Distribution of cycle latency between the first time a load is issued and its completion (Unspecified)
system.cpu0.lsq0.loadToUse::10-19                  55      0.01%     91.96% # Distribution of cycle latency between the first time a load is issued and its completion (Unspecified)
system.cpu0.lsq0.loadToUse::20-29                  58      0.01%     91.97% # Distribution of cycle latency between the first time a load is issued and its completion (Unspecified)
system.cpu0.lsq0.loadToUse::30-39                  53      0.01%     91.98% # Distribution of cycle latency between the first time a load is issued and its completion (Unspecified)
system.cpu0.lsq0.loadToUse::40-49                  61      0.01%     91.99% # Distribution of cycle latency between the first time a load is issued and its completion (Unspecified)
system.cpu0.lsq0.loadToUse::50-59                  68      0.01%     92.00% # Distribution of cycle latency between the first time a load is issued and its completion (Unspecified)
system.cpu0.lsq0.loadToUse::60-69                  87      0.02%     92.02% # Distribution of cycle latency between the first time a load is issued and its completion (Unspecified)
system.cpu0.lsq0.loadToUse::70-79                  66      0.01%     92.03% # Distribution of cycle latency between the first time a load is issued and its completion (Unspecified)
system.cpu0.lsq0.loadToUse::80-89                  62      0.01%     92.04% # Distribution of cycle latency between the first time a load is issued and its completion (Unspecified)
system.cpu0.lsq0.loadToUse::90-99                  45      0.01%     92.05% # Distribution of cycle latency between the first time a load is issued and its completion (Unspecified)
system.cpu0.lsq0.loadToUse::100-109                30      0.01%     92.06% # Distribution of cycle latency between the first time a load is issued and its completion (Unspecified)
system.cpu0.lsq0.loadToUse::110-119                74      0.01%     92.07% # Distribution of cycle latency between the first time a load is issued and its completion (Unspecified)
system.cpu0.lsq0.loadToUse::120-129                65      0.01%     92.08% # Distribution of cycle latency between the first time a load is issued and its completion (Unspecified)
system.cpu0.lsq0.loadToUse::130-139                36      0.01%     92.09% # Distribution of cycle latency between the first time a load is issued and its completion (Unspecified)
system.cpu0.lsq0.loadToUse::140-149                47      0.01%     92.10% # Distribution of cycle latency between the first time a load is issued and its completion (Unspecified)
system.cpu0.lsq0.loadToUse::150-159                48      0.01%     92.10% # Distribution of cycle latency between the first time a load is issued and its completion (Unspecified)
system.cpu0.lsq0.loadToUse::160-169                52      0.01%     92.11% # Distribution of cycle latency between the first time a load is issued and its completion (Unspecified)
system.cpu0.lsq0.loadToUse::170-179               123      0.02%     92.14% # Distribution of cycle latency between the first time a load is issued and its completion (Unspecified)
system.cpu0.lsq0.loadToUse::180-189               611      0.11%     92.24% # Distribution of cycle latency between the first time a load is issued and its completion (Unspecified)
system.cpu0.lsq0.loadToUse::190-199                66      0.01%     92.26% # Distribution of cycle latency between the first time a load is issued and its completion (Unspecified)
system.cpu0.lsq0.loadToUse::200-209                66      0.01%     92.27% # Distribution of cycle latency between the first time a load is issued and its completion (Unspecified)
system.cpu0.lsq0.loadToUse::210-219                59      0.01%     92.28% # Distribution of cycle latency between the first time a load is issued and its completion (Unspecified)
system.cpu0.lsq0.loadToUse::220-229                96      0.02%     92.30% # Distribution of cycle latency between the first time a load is issued and its completion (Unspecified)
system.cpu0.lsq0.loadToUse::230-239               120      0.02%     92.32% # Distribution of cycle latency between the first time a load is issued and its completion (Unspecified)
system.cpu0.lsq0.loadToUse::240-249               513      0.09%     92.41% # Distribution of cycle latency between the first time a load is issued and its completion (Unspecified)
system.cpu0.lsq0.loadToUse::250-259                34      0.01%     92.41% # Distribution of cycle latency between the first time a load is issued and its completion (Unspecified)
system.cpu0.lsq0.loadToUse::260-269                39      0.01%     92.42% # Distribution of cycle latency between the first time a load is issued and its completion (Unspecified)
system.cpu0.lsq0.loadToUse::270-279                59      0.01%     92.43% # Distribution of cycle latency between the first time a load is issued and its completion (Unspecified)
system.cpu0.lsq0.loadToUse::280-289                80      0.01%     92.45% # Distribution of cycle latency between the first time a load is issued and its completion (Unspecified)
system.cpu0.lsq0.loadToUse::290-299                94      0.02%     92.46% # Distribution of cycle latency between the first time a load is issued and its completion (Unspecified)
system.cpu0.lsq0.loadToUse::overflows           42283      7.54%    100.00% # Distribution of cycle latency between the first time a load is issued and its completion (Unspecified)
system.cpu0.lsq0.loadToUse::min_value               2                       # Distribution of cycle latency between the first time a load is issued and its completion (Unspecified)
system.cpu0.lsq0.loadToUse::max_value            2468                       # Distribution of cycle latency between the first time a load is issued and its completion (Unspecified)
system.cpu0.lsq0.loadToUse::total              560970                       # Distribution of cycle latency between the first time a load is issued and its completion (Unspecified)
system.cpu0.mmu.dtb.rdAccesses                 664935                       # TLB accesses on read requests (Count)
system.cpu0.mmu.dtb.wrAccesses                 238956                       # TLB accesses on write requests (Count)
system.cpu0.mmu.dtb.rdMisses                     3147                       # TLB misses on read requests (Count)
system.cpu0.mmu.dtb.wrMisses                      447                       # TLB misses on write requests (Count)
system.cpu0.mmu.dtb.walker.power_state.pwrStateResidencyTicks::UNDEFINED   5353517500                       # Cumulative time (in ticks) in various power states (Tick)
system.cpu0.mmu.itb.rdAccesses                      0                       # TLB accesses on read requests (Count)
system.cpu0.mmu.itb.wrAccesses                 272259                       # TLB accesses on write requests (Count)
system.cpu0.mmu.itb.rdMisses                        0                       # TLB misses on read requests (Count)
system.cpu0.mmu.itb.wrMisses                     3159                       # TLB misses on write requests (Count)
system.cpu0.mmu.itb.walker.power_state.pwrStateResidencyTicks::UNDEFINED   5353517500                       # Cumulative time (in ticks) in various power states (Tick)
system.cpu0.power_state.pwrStateResidencyTicks::ON   5353517500                       # Cumulative time (in ticks) in various power states (Tick)
system.cpu0.rename.squashCycles                 19120                       # Number of cycles rename is squashing (Cycle)
system.cpu0.rename.idleCycles                  562730                       # Number of cycles rename is idle (Cycle)
system.cpu0.rename.blockCycles                7098587                       # Number of cycles rename is blocking (Cycle)
system.cpu0.rename.serializeStallCycles         22556                       # count of cycles rename stalled for serializing inst (Cycle)
system.cpu0.rename.runCycles                   643576                       # Number of cycles rename is running (Cycle)
system.cpu0.rename.unblockCycles              1031242                       # Number of cycles rename is unblocking (Cycle)
system.cpu0.rename.renamedInsts               5064325                       # Number of instructions processed by rename (Count)
system.cpu0.rename.ROBFullEvents               107030                       # Number of times rename has blocked due to ROB full (Count)
system.cpu0.rename.IQFullEvents                258749                       # Number of times rename has blocked due to IQ full (Count)
system.cpu0.rename.LQFullEvents                157207                       # Number of times rename has blocked due to LQ full (Count)
system.cpu0.rename.SQFullEvents                561679                       # Number of times rename has blocked due to SQ full (Count)
system.cpu0.rename.fullRegistersEvents           3392                       # Number of times there has been no free registers (Count)
system.cpu0.rename.renamedOperands           10676459                       # Number of destination operands rename has renamed (Count)
system.cpu0.rename.lookups                   19173133                       # Number of register rename lookups that rename has made (Count)
system.cpu0.rename.intLookups                 7132191                       # Number of integer rename lookups (Count)
system.cpu0.rename.fpLookups                   184413                       # Number of floating rename lookups (Count)
system.cpu0.rename.committedMaps              8327384                       # Number of HB maps that are committed (Count)
system.cpu0.rename.undoneMaps                 2349075                       # Number of HB maps that are undone due to squashing (Count)
system.cpu0.rename.serializing                    873                       # count of serializing insts renamed (Count)
system.cpu0.rename.tempSerializing                859                       # count of temporary serializing insts renamed (Count)
system.cpu0.rename.skidInsts                   964538                       # count of insts added to the skid buffer (Count)
system.cpu0.rob.reads                        13946985                       # The number of ROB reads (Count)
system.cpu0.rob.writes                       10054433                       # The number of ROB writes (Count)
system.cpu0.thread_0.numInsts                 2275537                       # Number of Instructions committed (Count)
system.cpu0.thread_0.numOps                   3916809                       # Number of Ops committed (Count)
system.cpu0.thread_0.numMemRefs                     0                       # Number of Memory References (Count)
system.cpu0.workload.numSyscalls                   63                       # Number of system calls (Count)
system.cpu1.numCycles                        10243354                       # Number of cpu cycles simulated (Cycle)
system.cpu1.numWorkItemsStarted                     0                       # Number of work items this cpu started (Count)
system.cpu1.numWorkItemsCompleted                   0                       # Number of work items this cpu completed (Count)
system.cpu1.instsAdded                        4961520                       # Number of instructions added to the IQ (excludes non-spec) (Count)
system.cpu1.nonSpecInstsAdded                    1089                       # Number of non-speculative instructions added to the IQ (Count)
system.cpu1.instsIssued                       4599545                       # Number of instructions issued (Count)
system.cpu1.squashedInstsIssued                  2916                       # Number of squashed instructions issued (Count)
system.cpu1.squashedInstsExamined             1045800                       # Number of squashed instructions iterated over during squash; mainly for profiling (Count)
system.cpu1.squashedOperandsExamined          2257059                       # Number of squashed operands that are examined and possibly removed from graph (Count)
system.cpu1.squashedNonSpecRemoved                236                       # Number of squashed non-spec instructions that were removed (Count)
system.cpu1.numIssuedDist::samples            9096838                       # Number of insts issued each cycle (Count)
system.cpu1.numIssuedDist::mean              0.505620                       # Number of insts issued each cycle (Count)
system.cpu1.numIssuedDist::stdev             1.440648                       # Number of insts issued each cycle (Count)
system.cpu1.numIssuedDist::underflows               0      0.00%      0.00% # Number of insts issued each cycle (Count)
system.cpu1.numIssuedDist::0                  7806436     85.81%     85.81% # Number of insts issued each cycle (Count)
system.cpu1.numIssuedDist::1                   209403      2.30%     88.12% # Number of insts issued each cycle (Count)
system.cpu1.numIssuedDist::2                   236769      2.60%     90.72% # Number of insts issued each cycle (Count)
system.cpu1.numIssuedDist::3                   249842      2.75%     93.47% # Number of insts issued each cycle (Count)
system.cpu1.numIssuedDist::4                   200842      2.21%     95.67% # Number of insts issued each cycle (Count)
system.cpu1.numIssuedDist::5                   152421      1.68%     97.35% # Number of insts issued each cycle (Count)
system.cpu1.numIssuedDist::6                   127834      1.41%     98.75% # Number of insts issued each cycle (Count)
system.cpu1.numIssuedDist::7                    71727      0.79%     99.54% # Number of insts issued each cycle (Count)
system.cpu1.numIssuedDist::8                    41564      0.46%    100.00% # Number of insts issued each cycle (Count)
system.cpu1.numIssuedDist::overflows                0      0.00%    100.00% # Number of insts issued each cycle (Count)
system.cpu1.numIssuedDist::min_value                0                       # Number of insts issued each cycle (Count)
system.cpu1.numIssuedDist::max_value                8                       # Number of insts issued each cycle (Count)
system.cpu1.numIssuedDist::total              9096838                       # Number of insts issued each cycle (Count)
system.cpu1.statFuBusy::No_OpClass                  0      0.00%      0.00% # attempts to use FU when none available (Count)
system.cpu1.statFuBusy::IntAlu                  42102     61.38%     61.38% # attempts to use FU when none available (Count)
system.cpu1.statFuBusy::IntMult                     0      0.00%     61.38% # attempts to use FU when none available (Count)
system.cpu1.statFuBusy::IntDiv                      0      0.00%     61.38% # attempts to use FU when none available (Count)
system.cpu1.statFuBusy::FloatAdd                    0      0.00%     61.38% # attempts to use FU when none available (Count)
system.cpu1.statFuBusy::FloatCmp                    0      0.00%     61.38% # attempts to use FU when none available (Count)
system.cpu1.statFuBusy::FloatCvt                    0      0.00%     61.38% # attempts to use FU when none available (Count)
system.cpu1.statFuBusy::FloatMult                   0      0.00%     61.38% # attempts to use FU when none available (Count)
system.cpu1.statFuBusy::FloatMultAcc                0      0.00%     61.38% # attempts to use FU when none available (Count)
system.cpu1.statFuBusy::FloatDiv                    0      0.00%     61.38% # attempts to use FU when none available (Count)
system.cpu1.statFuBusy::FloatMisc                   0      0.00%     61.38% # attempts to use FU when none available (Count)
system.cpu1.statFuBusy::FloatSqrt                   0      0.00%     61.38% # attempts to use FU when none available (Count)
system.cpu1.statFuBusy::SimdAdd                     0      0.00%     61.38% # attempts to use FU when none available (Count)
system.cpu1.statFuBusy::SimdAddAcc                  0      0.00%     61.38% # attempts to use FU when none available (Count)
system.cpu1.statFuBusy::SimdAlu                   123      0.18%     61.56% # attempts to use FU when none available (Count)
system.cpu1.statFuBusy::SimdCmp                     0      0.00%     61.56% # attempts to use FU when none available (Count)
system.cpu1.statFuBusy::SimdCvt                   129      0.19%     61.75% # attempts to use FU when none available (Count)
system.cpu1.statFuBusy::SimdMisc                    0      0.00%     61.75% # attempts to use FU when none available (Count)
system.cpu1.statFuBusy::SimdMult                    0      0.00%     61.75% # attempts to use FU when none available (Count)
system.cpu1.statFuBusy::SimdMultAcc                 0      0.00%     61.75% # attempts to use FU when none available (Count)
system.cpu1.statFuBusy::SimdShift                 133      0.19%     61.94% # attempts to use FU when none available (Count)
system.cpu1.statFuBusy::SimdShiftAcc                0      0.00%     61.94% # attempts to use FU when none available (Count)
system.cpu1.statFuBusy::SimdDiv                     0      0.00%     61.94% # attempts to use FU when none available (Count)
system.cpu1.statFuBusy::SimdSqrt                    0      0.00%     61.94% # attempts to use FU when none available (Count)
system.cpu1.statFuBusy::SimdFloatAdd                0      0.00%     61.94% # attempts to use FU when none available (Count)
system.cpu1.statFuBusy::SimdFloatAlu                0      0.00%     61.94% # attempts to use FU when none available (Count)
system.cpu1.statFuBusy::SimdFloatCmp                0      0.00%     61.94% # attempts to use FU when none available (Count)
system.cpu1.statFuBusy::SimdFloatCvt                0      0.00%     61.94% # attempts to use FU when none available (Count)
system.cpu1.statFuBusy::SimdFloatDiv                0      0.00%     61.94% # attempts to use FU when none available (Count)
system.cpu1.statFuBusy::SimdFloatMisc               0      0.00%     61.94% # attempts to use FU when none available (Count)
system.cpu1.statFuBusy::SimdFloatMult               0      0.00%     61.94% # attempts to use FU when none available (Count)
system.cpu1.statFuBusy::SimdFloatMultAcc            0      0.00%     61.94% # attempts to use FU when none available (Count)
system.cpu1.statFuBusy::SimdFloatSqrt               0      0.00%     61.94% # attempts to use FU when none available (Count)
system.cpu1.statFuBusy::SimdReduceAdd               0      0.00%     61.94% # attempts to use FU when none available (Count)
system.cpu1.statFuBusy::SimdReduceAlu               0      0.00%     61.94% # attempts to use FU when none available (Count)
system.cpu1.statFuBusy::SimdReduceCmp               0      0.00%     61.94% # attempts to use FU when none available (Count)
system.cpu1.statFuBusy::SimdFloatReduceAdd            0      0.00%     61.94% # attempts to use FU when none available (Count)
system.cpu1.statFuBusy::SimdFloatReduceCmp            0      0.00%     61.94% # attempts to use FU when none available (Count)
system.cpu1.statFuBusy::SimdAes                     0      0.00%     61.94% # attempts to use FU when none available (Count)
system.cpu1.statFuBusy::SimdAesMix                  0      0.00%     61.94% # attempts to use FU when none available (Count)
system.cpu1.statFuBusy::SimdSha1Hash                0      0.00%     61.94% # attempts to use FU when none available (Count)
system.cpu1.statFuBusy::SimdSha1Hash2               0      0.00%     61.94% # attempts to use FU when none available (Count)
system.cpu1.statFuBusy::SimdSha256Hash              0      0.00%     61.94% # attempts to use FU when none available (Count)
system.cpu1.statFuBusy::SimdSha256Hash2             0      0.00%     61.94% # attempts to use FU when none available (Count)
system.cpu1.statFuBusy::SimdShaSigma2               0      0.00%     61.94% # attempts to use FU when none available (Count)
system.cpu1.statFuBusy::SimdShaSigma3               0      0.00%     61.94% # attempts to use FU when none available (Count)
system.cpu1.statFuBusy::SimdPredAlu                 0      0.00%     61.94% # attempts to use FU when none available (Count)
system.cpu1.statFuBusy::MemRead                 15529     22.64%     84.58% # attempts to use FU when none available (Count)
system.cpu1.statFuBusy::MemWrite                 8734     12.73%     97.31% # attempts to use FU when none available (Count)
system.cpu1.statFuBusy::FloatMemRead             1399      2.04%     99.35% # attempts to use FU when none available (Count)
system.cpu1.statFuBusy::FloatMemWrite             443      0.65%    100.00% # attempts to use FU when none available (Count)
system.cpu1.statFuBusy::IprAccess                   0      0.00%    100.00% # attempts to use FU when none available (Count)
system.cpu1.statFuBusy::InstPrefetch                0      0.00%    100.00% # attempts to use FU when none available (Count)
system.cpu1.statIssuedInstType_0::No_OpClass        18206      0.40%      0.40% # Number of instructions issued per FU type, per thread (Count)
system.cpu1.statIssuedInstType_0::IntAlu      3563854     77.48%     77.88% # Number of instructions issued per FU type, per thread (Count)
system.cpu1.statIssuedInstType_0::IntMult           37      0.00%     77.88% # Number of instructions issued per FU type, per thread (Count)
system.cpu1.statIssuedInstType_0::IntDiv        38197      0.83%     78.71% # Number of instructions issued per FU type, per thread (Count)
system.cpu1.statIssuedInstType_0::FloatAdd         4298      0.09%     78.80% # Number of instructions issued per FU type, per thread (Count)
system.cpu1.statIssuedInstType_0::FloatCmp            0      0.00%     78.80% # Number of instructions issued per FU type, per thread (Count)
system.cpu1.statIssuedInstType_0::FloatCvt         1646      0.04%     78.84% # Number of instructions issued per FU type, per thread (Count)
system.cpu1.statIssuedInstType_0::FloatMult            0      0.00%     78.84% # Number of instructions issued per FU type, per thread (Count)
system.cpu1.statIssuedInstType_0::FloatMultAcc            0      0.00%     78.84% # Number of instructions issued per FU type, per thread (Count)
system.cpu1.statIssuedInstType_0::FloatDiv            0      0.00%     78.84% # Number of instructions issued per FU type, per thread (Count)
system.cpu1.statIssuedInstType_0::FloatMisc            0      0.00%     78.84% # Number of instructions issued per FU type, per thread (Count)
system.cpu1.statIssuedInstType_0::FloatSqrt            0      0.00%     78.84% # Number of instructions issued per FU type, per thread (Count)
system.cpu1.statIssuedInstType_0::SimdAdd         8196      0.18%     79.02% # Number of instructions issued per FU type, per thread (Count)
system.cpu1.statIssuedInstType_0::SimdAddAcc            0      0.00%     79.02% # Number of instructions issued per FU type, per thread (Count)
system.cpu1.statIssuedInstType_0::SimdAlu        16709      0.36%     79.38% # Number of instructions issued per FU type, per thread (Count)
system.cpu1.statIssuedInstType_0::SimdCmp            0      0.00%     79.38% # Number of instructions issued per FU type, per thread (Count)
system.cpu1.statIssuedInstType_0::SimdCvt        18210      0.40%     79.78% # Number of instructions issued per FU type, per thread (Count)
system.cpu1.statIssuedInstType_0::SimdMisc         8682      0.19%     79.97% # Number of instructions issued per FU type, per thread (Count)
system.cpu1.statIssuedInstType_0::SimdMult            0      0.00%     79.97% # Number of instructions issued per FU type, per thread (Count)
system.cpu1.statIssuedInstType_0::SimdMultAcc            0      0.00%     79.97% # Number of instructions issued per FU type, per thread (Count)
system.cpu1.statIssuedInstType_0::SimdShift         2440      0.05%     80.02% # Number of instructions issued per FU type, per thread (Count)
system.cpu1.statIssuedInstType_0::SimdShiftAcc            0      0.00%     80.02% # Number of instructions issued per FU type, per thread (Count)
system.cpu1.statIssuedInstType_0::SimdDiv            0      0.00%     80.02% # Number of instructions issued per FU type, per thread (Count)
system.cpu1.statIssuedInstType_0::SimdSqrt            0      0.00%     80.02% # Number of instructions issued per FU type, per thread (Count)
system.cpu1.statIssuedInstType_0::SimdFloatAdd            0      0.00%     80.02% # Number of instructions issued per FU type, per thread (Count)
system.cpu1.statIssuedInstType_0::SimdFloatAlu            0      0.00%     80.02% # Number of instructions issued per FU type, per thread (Count)
system.cpu1.statIssuedInstType_0::SimdFloatCmp            0      0.00%     80.02% # Number of instructions issued per FU type, per thread (Count)
system.cpu1.statIssuedInstType_0::SimdFloatCvt            0      0.00%     80.02% # Number of instructions issued per FU type, per thread (Count)
system.cpu1.statIssuedInstType_0::SimdFloatDiv            0      0.00%     80.02% # Number of instructions issued per FU type, per thread (Count)
system.cpu1.statIssuedInstType_0::SimdFloatMisc            0      0.00%     80.02% # Number of instructions issued per FU type, per thread (Count)
system.cpu1.statIssuedInstType_0::SimdFloatMult            0      0.00%     80.02% # Number of instructions issued per FU type, per thread (Count)
system.cpu1.statIssuedInstType_0::SimdFloatMultAcc            0      0.00%     80.02% # Number of instructions issued per FU type, per thread (Count)
system.cpu1.statIssuedInstType_0::SimdFloatSqrt            0      0.00%     80.02% # Number of instructions issued per FU type, per thread (Count)
system.cpu1.statIssuedInstType_0::SimdReduceAdd            0      0.00%     80.02% # Number of instructions issued per FU type, per thread (Count)
system.cpu1.statIssuedInstType_0::SimdReduceAlu            0      0.00%     80.02% # Number of instructions issued per FU type, per thread (Count)
system.cpu1.statIssuedInstType_0::SimdReduceCmp            0      0.00%     80.02% # Number of instructions issued per FU type, per thread (Count)
system.cpu1.statIssuedInstType_0::SimdFloatReduceAdd            0      0.00%     80.02% # Number of instructions issued per FU type, per thread (Count)
system.cpu1.statIssuedInstType_0::SimdFloatReduceCmp            0      0.00%     80.02% # Number of instructions issued per FU type, per thread (Count)
system.cpu1.statIssuedInstType_0::SimdAes            0      0.00%     80.02% # Number of instructions issued per FU type, per thread (Count)
system.cpu1.statIssuedInstType_0::SimdAesMix            0      0.00%     80.02% # Number of instructions issued per FU type, per thread (Count)
system.cpu1.statIssuedInstType_0::SimdSha1Hash            0      0.00%     80.02% # Number of instructions issued per FU type, per thread (Count)
system.cpu1.statIssuedInstType_0::SimdSha1Hash2            0      0.00%     80.02% # Number of instructions issued per FU type, per thread (Count)
system.cpu1.statIssuedInstType_0::SimdSha256Hash            0      0.00%     80.02% # Number of instructions issued per FU type, per thread (Count)
system.cpu1.statIssuedInstType_0::SimdSha256Hash2            0      0.00%     80.02% # Number of instructions issued per FU type, per thread (Count)
system.cpu1.statIssuedInstType_0::SimdShaSigma2            0      0.00%     80.02% # Number of instructions issued per FU type, per thread (Count)
system.cpu1.statIssuedInstType_0::SimdShaSigma3            0      0.00%     80.02% # Number of instructions issued per FU type, per thread (Count)
system.cpu1.statIssuedInstType_0::SimdPredAlu            0      0.00%     80.02% # Number of instructions issued per FU type, per thread (Count)
system.cpu1.statIssuedInstType_0::MemRead       645074     14.02%     94.04% # Number of instructions issued per FU type, per thread (Count)
system.cpu1.statIssuedInstType_0::MemWrite       222957      4.85%     98.89% # Number of instructions issued per FU type, per thread (Count)
system.cpu1.statIssuedInstType_0::FloatMemRead        33124      0.72%     99.61% # Number of instructions issued per FU type, per thread (Count)
system.cpu1.statIssuedInstType_0::FloatMemWrite        17915      0.39%    100.00% # Number of instructions issued per FU type, per thread (Count)
system.cpu1.statIssuedInstType_0::IprAccess            0      0.00%    100.00% # Number of instructions issued per FU type, per thread (Count)
system.cpu1.statIssuedInstType_0::InstPrefetch            0      0.00%    100.00% # Number of instructions issued per FU type, per thread (Count)
system.cpu1.statIssuedInstType_0::total       4599545                       # Number of instructions issued per FU type, per thread (Count)
system.cpu1.issueRate                        0.449027                       # Inst issue rate ((Count/Cycle))
system.cpu1.fuBusy                              68592                       # FU busy when requested (Count)
system.cpu1.fuBusyRate                       0.014913                       # FU busy rate (busy events/executed inst) ((Count/Count))
system.cpu1.intInstQueueReads                18140256                       # Number of integer instruction queue reads (Count)
system.cpu1.intInstQueueWrites                5836365                       # Number of integer instruction queue writes (Count)
system.cpu1.intInstQueueWakeupAccesses        4431219                       # Number of integer instruction queue wakeup accesses (Count)
system.cpu1.fpInstQueueReads                   227180                       # Number of floating instruction queue reads (Count)
system.cpu1.fpInstQueueWrites                  172213                       # Number of floating instruction queue writes (Count)
system.cpu1.fpInstQueueWakeupAccesses          108655                       # Number of floating instruction queue wakeup accesses (Count)
system.cpu1.vecInstQueueReads                       0                       # Number of vector instruction queue reads (Count)
system.cpu1.vecInstQueueWrites                      0                       # Number of vector instruction queue writes (Count)
system.cpu1.vecInstQueueWakeupAccesses              0                       # Number of vector instruction queue wakeup accesses (Count)
system.cpu1.intAluAccesses                    4535372                       # Number of integer alu accesses (Count)
system.cpu1.fpAluAccesses                      114559                       # Number of floating point alu accesses (Count)
system.cpu1.vecAluAccesses                          0                       # Number of vector alu accesses (Count)
system.cpu1.numInsts                          4569239                       # Number of executed instructions (Count)
system.cpu1.numLoadInsts                       670533                       # Number of load instructions executed (Count)
system.cpu1.numSquashedInsts                    30306                       # Number of squashed instructions skipped in execute (Count)
system.cpu1.numSwp                                  0                       # Number of swp insts executed (Count)
system.cpu1.numNop                                  0                       # Number of nop insts executed (Count)
system.cpu1.numRefs                            909407                       # Number of memory reference insts executed (Count)
system.cpu1.numBranches                        402398                       # Number of branches executed (Count)
[...]
system.ruby.network.ext_out_link_utilization      4196997                       (Unspecified)
system.ruby.network.flit_network_latency |105277212500                       |208700800000                       | 28845662000                       (Unspecified)
system.ruby.network.flit_queueing_latency |  2141005000                       |  1953113000                       |   148090000                       (Unspecified)
system.ruby.network.flits_injected       |      995856     23.73%     23.73% |     2904966     69.22%     92.94% |      296181      7.06%    100.00% (Unspecified)
system.ruby.network.flits_injected::total      4197003                       (Unspecified)
system.ruby.network.flits_received       |      995856     23.73%     23.73% |     2904961     69.22%     92.94% |      296180      7.06%    100.00% (Unspecified)
system.ruby.network.flits_received::total      4196997                       (Unspecified)
system.ruby.network.int_link_utilization     12728691                       (Unspecified)
system.ruby.network.packet_network_latency | 78934849500                       | 68994236500                       | 28845662000                       (Unspecified)
system.ruby.network.packet_queueing_latency |  1760515000                       |   519285000                       |   148090000                       (Unspecified)
system.ruby.network.packets_injected     |      811448     42.28%     42.28% |      811446     42.28%     84.57% |      296181     15.43%    100.00% (Unspecified)
system.ruby.network.packets_injected::total      1919075                       (Unspecified)
system.ruby.network.packets_received     |      811448     42.28%     42.28% |      811445     42.28%     84.57% |      296180     15.43%    100.00% (Unspecified)
system.ruby.network.packets_received::total      1919073                       (Unspecified)
system.ruby.network.routers00.Var_1                 0                       (Unspecified)
system.ruby.network.routers00.Var_2                 0                       (Unspecified)
system.ruby.network.routers00.Var_3                 0                       (Unspecified)
system.ruby.network.routers00.all_counts            0                       (Unspecified)
system.ruby.network.routers00.buffer_reads       752664                       (Unspecified)
system.ruby.network.routers00.buffer_writes       752664                       (Unspecified)
system.ruby.network.routers00.crossbar_activity       752664                       (Unspecified)
system.ruby.network.routers00.detour_counts        53504                       (Unspecified)
system.ruby.network.routers00.regular_var            0                       (Unspecified)
system.ruby.network.routers00.risk_counts            0                       (Unspecified)
system.ruby.network.routers00.sw_input_arbiter_activity       758411                       (Unspecified)
system.ruby.network.routers00.sw_output_arbiter_activity       752664                       (Unspecified)
system.ruby.network.routers01.Var_1                 0                       (Unspecified)
system.ruby.network.routers01.Var_2                 0                       (Unspecified)
system.ruby.network.routers01.Var_3                 0                       (Unspecified)
system.ruby.network.routers01.all_counts            0                       (Unspecified)
system.ruby.network.routers01.buffer_reads      1080562                       (Unspecified)
system.ruby.network.routers01.buffer_writes      1080562                       (Unspecified)
system.ruby.network.routers01.crossbar_activity      1080562                       (Unspecified)
system.ruby.network.routers01.detour_counts        53573                       (Unspecified)
system.ruby.network.routers01.regular_var            0                       (Unspecified)
system.ruby.network.routers01.risk_counts            0                       (Unspecified)
system.ruby.network.routers01.sw_input_arbiter_activity      1092911                       (Unspecified)
system.ruby.network.routers01.sw_output_arbiter_activity      1080562                       (Unspecified)
system.ruby.network.routers02.Var_1                 0                       (Unspecified)
system.ruby.network.routers02.Var_2                 0                       (Unspecified)
system.ruby.network.routers02.Var_3                 0                       (Unspecified)
system.ruby.network.routers02.all_counts            0                       (Unspecified)
system.ruby.network.routers02.buffer_reads      1081567                       (Unspecified)
system.ruby.network.routers02.buffer_writes      1081567                       (Unspecified)
system.ruby.network.routers02.crossbar_activity      1081567                       (Unspecified)
system.ruby.network.routers02.detour_counts        53548                       (Unspecified)
system.ruby.network.routers02.regular_var            0                       (Unspecified)
system.ruby.network.routers02.risk_counts            0                       (Unspecified)
system.ruby.network.routers02.sw_input_arbiter_activity      1093892                       (Unspecified)
system.ruby.network.routers02.sw_output_arbiter_activity      1081567                       (Unspecified)
system.ruby.network.routers03.Var_1                 0                       (Unspecified)
system.ruby.network.routers03.Var_2                 0                       (Unspecified)
system.ruby.network.routers03.Var_3                 0                       (Unspecified)
system.ruby.network.routers03.all_counts            0                       (Unspecified)
system.ruby.network.routers03.buffer_reads       742440                       (Unspecified)
system.ruby.network.routers03.buffer_writes       742440                       (Unspecified)
system.ruby.network.routers03.crossbar_activity       742440                       (Unspecified)
system.ruby.network.routers03.detour_counts        53617                       (Unspecified)
system.ruby.network.routers03.regular_var            0                       (Unspecified)
system.ruby.network.routers03.risk_counts            0                       (Unspecified)
system.ruby.network.routers03.sw_input_arbiter_activity       747963                       (Unspecified)
system.ruby.network.routers03.sw_output_arbiter_activity       742440                       (Unspecified)
system.ruby.network.routers04.Var_1                 0                       (Unspecified)
system.ruby.network.routers04.Var_2                 0                       (Unspecified)
system.ruby.network.routers04.Var_3                 0                       (Unspecified)
system.ruby.network.routers04.all_counts            0                       (Unspecified)
system.ruby.network.routers04.buffer_reads      1049733                       (Unspecified)
system.ruby.network.routers04.buffer_writes      1049733                       (Unspecified)
system.ruby.network.routers04.crossbar_activity      1049733                       (Unspecified)
system.ruby.network.routers04.detour_counts        53606                       (Unspecified)
system.ruby.network.routers04.regular_var            0                       (Unspecified)
system.ruby.network.routers04.risk_counts            0                       (Unspecified)
system.ruby.network.routers04.sw_input_arbiter_activity      1061275                       (Unspecified)
system.ruby.network.routers04.sw_output_arbiter_activity      1049733                       (Unspecified)
system.ruby.network.routers05.Var_1                 0                       (Unspecified)
system.ruby.network.routers05.Var_2                 0                       (Unspecified)
system.ruby.network.routers05.Var_3                 0                       (Unspecified)
system.ruby.network.routers05.all_counts            0                       (Unspecified)
system.ruby.network.routers05.buffer_reads      1372979                       (Unspecified)
system.ruby.network.routers05.buffer_writes      1372979                       (Unspecified)
system.ruby.network.routers05.crossbar_activity      1372979                       (Unspecified)
system.ruby.network.routers05.detour_counts        53710                       (Unspecified)
system.ruby.network.routers05.regular_var            0                       (Unspecified)
system.ruby.network.routers05.risk_counts            0                       (Unspecified)
system.ruby.network.routers05.sw_input_arbiter_activity      1391221                       (Unspecified)
system.ruby.network.routers05.sw_output_arbiter_activity      1372979                       (Unspecified)
system.ruby.network.routers06.Var_1                 0                       (Unspecified)
system.ruby.network.routers06.Var_2                 0                       (Unspecified)
system.ruby.network.routers06.Var_3                 0                       (Unspecified)
system.ruby.network.routers06.all_counts            0                       (Unspecified)
system.ruby.network.routers06.buffer_reads      1372562                       (Unspecified)
system.ruby.network.routers06.buffer_writes      1372562                       (Unspecified)
system.ruby.network.routers06.crossbar_activity      1372562                       (Unspecified)
system.ruby.network.routers06.detour_counts        53639                       (Unspecified)
system.ruby.network.routers06.regular_var            0                       (Unspecified)
system.ruby.network.routers06.risk_counts            0                       (Unspecified)
system.ruby.network.routers06.sw_input_arbiter_activity      1390488                       (Unspecified)
system.ruby.network.routers06.sw_output_arbiter_activity      1372562                       (Unspecified)
system.ruby.network.routers07.Var_1                 0                       (Unspecified)
system.ruby.network.routers07.Var_2                 0                       (Unspecified)
system.ruby.network.routers07.Var_3                 0                       (Unspecified)
system.ruby.network.routers07.all_counts            0                       (Unspecified)
system.ruby.network.routers07.buffer_reads      1040193                       (Unspecified)
system.ruby.network.routers07.buffer_writes      1040193                       (Unspecified)
system.ruby.network.routers07.crossbar_activity      1040193                       (Unspecified)
system.ruby.network.routers07.detour_counts        53549                       (Unspecified)
system.ruby.network.routers07.regular_var            0                       (Unspecified)
system.ruby.network.routers07.risk_counts            0                       (Unspecified)
system.ruby.network.routers07.sw_input_arbiter_activity      1051672                       (Unspecified)
system.ruby.network.routers07.sw_output_arbiter_activity      1040193                       (Unspecified)
system.ruby.network.routers08.Var_1                 0                       (Unspecified)
system.ruby.network.routers08.Var_2                 0                       (Unspecified)
system.ruby.network.routers08.Var_3                 0                       (Unspecified)
system.ruby.network.routers08.all_counts            0                       (Unspecified)
system.ruby.network.routers08.buffer_reads      1045577                       (Unspecified)
system.ruby.network.routers08.buffer_writes      1045577                       (Unspecified)
system.ruby.network.routers08.crossbar_activity      1045577                       (Unspecified)
system.ruby.network.routers08.detour_counts        53655                       (Unspecified)
system.ruby.network.routers08.regular_var            0                       (Unspecified)
system.ruby.network.routers08.risk_counts            0                       (Unspecified)
system.ruby.network.routers08.sw_input_arbiter_activity      1057064                       (Unspecified)
system.ruby.network.routers08.sw_output_arbiter_activity      1045577                       (Unspecified)
system.ruby.network.routers09.Var_1                 0                       (Unspecified)
system.ruby.network.routers09.Var_2                 0                       (Unspecified)
system.ruby.network.routers09.Var_3                 0                       (Unspecified)
system.ruby.network.routers09.all_counts            0                       (Unspecified)
system.ruby.network.routers09.buffer_reads      1375273                       (Unspecified)
system.ruby.network.routers09.buffer_writes      1375273                       (Unspecified)
system.ruby.network.routers09.crossbar_activity      1375273                       (Unspecified)
system.ruby.network.routers09.detour_counts        53520                       (Unspecified)
system.ruby.network.routers09.regular_var            0                       (Unspecified)
system.ruby.network.routers09.risk_counts            0                       (Unspecified)
system.ruby.network.routers09.sw_input_arbiter_activity      1393948                       (Unspecified)
system.ruby.network.routers09.sw_output_arbiter_activity      1375273                       (Unspecified)
system.ruby.network.routers10.Var_1                 0                       (Unspecified)
system.ruby.network.routers10.Var_2                 0                       (Unspecified)
system.ruby.network.routers10.Var_3                 0                       (Unspecified)
system.ruby.network.routers10.all_counts            0                       (Unspecified)
system.ruby.network.routers10.buffer_reads      1370463                       (Unspecified)
system.ruby.network.routers10.buffer_writes      1370463                       (Unspecified)
system.ruby.network.routers10.crossbar_activity      1370463                       (Unspecified)
system.ruby.network.routers10.detour_counts        53545                       (Unspecified)
system.ruby.network.routers10.regular_var            0                       (Unspecified)
system.ruby.network.routers10.risk_counts            0                       (Unspecified)
system.ruby.network.routers10.sw_input_arbiter_activity      1388214                       (Unspecified)
system.ruby.network.routers10.sw_output_arbiter_activity      1370463                       (Unspecified)
system.ruby.network.routers11.Var_1                 0                       (Unspecified)
system.ruby.network.routers11.Var_2                 0                       (Unspecified)
system.ruby.network.routers11.Var_3                 0                       (Unspecified)
system.ruby.network.routers11.all_counts            0                       (Unspecified)
system.ruby.network.routers11.buffer_reads      1033738                       (Unspecified)
system.ruby.network.routers11.buffer_writes      1033738                       (Unspecified)
system.ruby.network.routers11.crossbar_activity      1033738                       (Unspecified)
system.ruby.network.routers11.detour_counts        53731                       (Unspecified)
system.ruby.network.routers11.regular_var            0                       (Unspecified)
system.ruby.network.routers11.risk_counts            0                       (Unspecified)
system.ruby.network.routers11.sw_input_arbiter_activity      1044938                       (Unspecified)
system.ruby.network.routers11.sw_output_arbiter_activity      1033738                       (Unspecified)
system.ruby.network.routers12.Var_1                 0                       (Unspecified)
system.ruby.network.routers12.Var_2                 0                       (Unspecified)
system.ruby.network.routers12.Var_3                 0                       (Unspecified)
system.ruby.network.routers12.all_counts            0                       (Unspecified)
system.ruby.network.routers12.buffer_reads       739330                       (Unspecified)
system.ruby.network.routers12.buffer_writes       739330                       (Unspecified)
system.ruby.network.routers12.crossbar_activity       739330                       (Unspecified)
system.ruby.network.routers12.detour_counts        53659                       (Unspecified)
system.ruby.network.routers12.regular_var            0                       (Unspecified)
system.ruby.network.routers12.risk_counts            0                       (Unspecified)
system.ruby.network.routers12.sw_input_arbiter_activity       744954                       (Unspecified)
system.ruby.network.routers12.sw_output_arbiter_activity       739330                       (Unspecified)
system.ruby.network.routers13.Var_1                 0                       (Unspecified)
system.ruby.network.routers13.Var_2                 0                       (Unspecified)
system.ruby.network.routers13.Var_3                 0                       (Unspecified)
system.ruby.network.routers13.all_counts            0                       (Unspecified)
system.ruby.network.routers13.buffer_reads      1068959                       (Unspecified)
system.ruby.network.routers13.buffer_writes      1068959                       (Unspecified)
system.ruby.network.routers13.crossbar_activity      1068959                       (Unspecified)
system.ruby.network.routers13.detour_counts        53537                       (Unspecified)
system.ruby.network.routers13.regular_var            0                       (Unspecified)
system.ruby.network.routers13.risk_counts            0                       (Unspecified)
system.ruby.network.routers13.sw_input_arbiter_activity      1081242                       (Unspecified)
system.ruby.network.routers13.sw_output_arbiter_activity      1068959                       (Unspecified)
system.ruby.network.routers14.Var_1                 0                       (Unspecified)
system.ruby.network.routers14.Var_2                 0                       (Unspecified)
system.ruby.network.routers14.Var_3                 0                       (Unspecified)
system.ruby.network.routers14.all_counts            0                       (Unspecified)
system.ruby.network.routers14.buffer_reads      1064245                       (Unspecified)
system.ruby.network.routers14.buffer_writes      1064245                       (Unspecified)
system.ruby.network.routers14.crossbar_activity      1064245                       (Unspecified)
system.ruby.network.routers14.detour_counts        53739                       (Unspecified)
system.ruby.network.routers14.regular_var            0                       (Unspecified)
system.ruby.network.routers14.risk_counts            0                       (Unspecified)
system.ruby.network.routers14.sw_input_arbiter_activity      1076070                       (Unspecified)
system.ruby.network.routers14.sw_output_arbiter_activity      1064245                       (Unspecified)
system.ruby.network.routers15.Var_1                 0                       (Unspecified)
system.ruby.network.routers15.Var_2                 0                       (Unspecified)
system.ruby.network.routers15.Var_3                 0                       (Unspecified)
system.ruby.network.routers15.all_counts            0                       (Unspecified)
system.ruby.network.routers15.buffer_reads       735403                       (Unspecified)
system.ruby.network.routers15.buffer_writes       735403                       (Unspecified)
system.ruby.network.routers15.crossbar_activity       735403                       (Unspecified)
system.ruby.network.routers15.detour_counts        53756                       (Unspecified)
system.ruby.network.routers15.regular_var            0                       (Unspecified)
system.ruby.network.routers15.risk_counts            0                       (Unspecified)
system.ruby.network.routers15.sw_input_arbiter_activity       740754                       (Unspecified)
system.ruby.network.routers15.sw_output_arbiter_activity       735403                       (Unspecified)

---------- End Simulation Statistics   ----------
