
---------- Begin Simulation Statistics ----------
simSeconds                                   0.004985                       # Number of seconds simulated (Second)
simTicks                                   4985060500                       # Number of ticks simulated (Tick)
finalTick                                  4985060500                       # Number of ticks from beginning of simulation (restored from checkpoints and never reset) (Tick)
simFreq                                  1000000000000                       # The number of ticks per simulated second ((Tick/Second))
hostSeconds                                    815.89                       # Real time elapsed on the host (Second)
hostTickRate                                  6110003                       # The number of ticks simulated per host second (ticks/s) ((Tick/Second))
hostMemory                                   11459432                       # Number of bytes of host memory used (Byte)
simInsts                                     36408592                       # Number of instructions simulated (Count)
simOps                                       62668944                       # Number of ops (including micro ops) simulated (Count)
hostInstRate                                    44625                       # Simulator instruction rate (inst/s) ((Count/Second))
hostOpRate                                      76811                       # Simulator op (including micro ops) rate (op/s) ((Count/Second))
system.clk_domain.clock                          1000                       # Clock period in ticks (Tick)
system.cpu0.numCycles                         9860923                       # Number of cpu cycles simulated (Cycle)
system.cpu0.numWorkItemsStarted                     0                       # Number of work items this cpu started (Count)
system.cpu0.numWorkItemsCompleted                   0                       # Number of work items this cpu completed (Count)
system.cpu0.instsAdded                        4961574                       # Number of instructions added to the IQ (excludes non-spec) (Count)
system.cpu0.nonSpecInstsAdded                    1093                       # Number of non-speculative instructions added to the IQ (Count)
system.cpu0.instsIssued                       4600016                       # Number of instructions issued (Count)
system.cpu0.squashedInstsIssued                  2900                       # Number of squashed instructions issued (Count)
system.cpu0.squashedInstsExamined             1045858                       # Number of squashed instructions iterated over during squash; mainly for profiling (Count)
system.cpu0.squashedOperandsExamined          2256314                       # Number of squashed operands that are examined and possibly removed from graph (Count)
system.cpu0.squashedNonSpecRemoved                240                       # Number of squashed non-spec instructions that were removed (Count)
system.cpu0.numIssuedDist::samples            8717915                       # Number of insts issued each cycle (Count)
system.cpu0.numIssuedDist::mean              0.527651                       # Number of insts issued each cycle (Count)
system.cpu0.numIssuedDist::stdev             1.467658                       # Number of insts issued each cycle (Count)
system.cpu0.numIssuedDist::underflows               0      0.00%      0.00% # Number of insts issued each cycle (Count)
system.cpu0.numIssuedDist::0                  7427224     85.19%     85.19% # Number of insts issued each cycle (Count)
system.cpu0.numIssuedDist::1                   209492      2.40%     87.60% # Number of insts issued each cycle (Count)
system.cpu0.numIssuedDist::2                   236876      2.72%     90.32% # Number of insts issued each cycle (Count)
system.cpu0.numIssuedDist::3                   249979      2.87%     93.18% # Number of insts issued each cycle (Count)
system.cpu0.numIssuedDist::4                   200733      2.30%     95.49% # Number of insts issued each cycle (Count)
system.cpu0.numIssuedDist::5                   152542      1.75%     97.23% # Number of insts issued each cycle (Count)
system.cpu0.numIssuedDist::6                   127821      1.47%     98.70% # Number of insts issued each cycle (Count)
system.cpu0.numIssuedDist::7                    71717      0.82%     99.52% # Number of insts issued each cycle (Count)
system.cpu0.numIssuedDist::8                    41531      0.48%    100.00% # Number of insts issued each cycle (Count)
system.cpu0.numIssuedDist::overflows                0      0.00%    100.00% # Number of insts issued each cycle (Count)
system.cpu0.numIssuedDist::min_value                0                       # Number of insts issued each cycle (Count)
system.cpu0.numIssuedDist::max_value                8                       # Number of insts issued each cycle (Count)
system.cpu0.numIssuedDist::total              8717915                       # Number of insts issued each cycle (Count)
system.cpu0.statFuBusy::No_OpClass                  0      0.00%      0.00% # attempts to use FU when none available (Count)
system.cpu0.statFuBusy::IntAlu                  42008     61.30%     61.30% # attempts to use FU when none available (Count)
system.cpu0.statFuBusy::IntMult                     0      0.00%     61.30% # attempts to use FU when none available (Count)
system.cpu0.statFuBusy::IntDiv                      0      0.00%     61.30% # attempts to use FU when none available (Count)
system.cpu0.statFuBusy::FloatAdd                    0      0.00%     61.30% # attempts to use FU when none available (Count)
system.cpu0.statFuBusy::FloatCmp                    0      0.00%     61.30% # attempts to use FU when none available (Count)
system.cpu0.statFuBusy::FloatCvt                    2      0.00%     61.30% # attempts to use FU when none available (Count)
system.cpu0.statFuBusy::FloatMult                   0      0.00%     61.30% # attempts to use FU when none available (Count)
system.cpu0.statFuBusy::FloatMultAcc                0      0.00%     61.30% # attempts to use FU when none available (Count)
system.cpu0.statFuBusy::FloatDiv                    0      0.00%     61.30% # attempts to use FU when none available (Count)
system.cpu0.statFuBusy::FloatMisc                   0      0.00%     61.30% # attempts to use FU when none available (Count)
system.cpu0.statFuBusy::FloatSqrt                   0      0.00%     61.30% # attempts to use FU when none available (Count)
system.cpu0.statFuBusy::SimdAdd                     0      0.00%     61.30% # attempts to use FU when none available (Count)
system.cpu0.statFuBusy::SimdAddAcc                  0      0.00%     61.30% # attempts to use FU when none available (Count)
system.cpu0.statFuBusy::SimdAlu                   124      0.18%     61.48% # attempts to use FU when none available (Count)
system.cpu0.statFuBusy::SimdCmp                     0      0.00%     61.48% # attempts to use FU when none available (Count)
system.cpu0.statFuBusy::SimdCvt                   121      0.18%     61.66% # attempts to use FU when none available (Count)
system.cpu0.statFuBusy::SimdMisc                    0      0.00%     61.66% # attempts to use FU when none available (Count)
system.cpu0.statFuBusy::SimdMult                    0      0.00%     61.66% # attempts to use FU when none available (Count)
system.cpu0.statFuBusy::SimdMultAcc                 0      0.00%     61.66% # attempts to use FU when none available (Count)
system.cpu0.statFuBusy::SimdShift                 134      0.20%     61.85% # attempts to use FU when none available (Count)
system.cpu0.statFuBusy::SimdShiftAcc                0      0.00%     61.85% # attempts to use FU when none available (Count)
system.cpu0.statFuBusy::SimdDiv                     0      0.00%     61.85% # attempts to use FU when none available (Count)
system.cpu0.statFuBusy::SimdSqrt                    0      0.00%     61.85% # attempts to use FU when none available (Count)
system.cpu0.statFuBusy::SimdFloatAdd                0      0.00%     61.85% # attempts to use FU when none available (Count)
system.cpu0.statFuBusy::SimdFloatAlu                0      0.00%     61.85% # attempts to use FU when none available (Count)
system.cpu0.statFuBusy::SimdFloatCmp                0      0.00%     61.85% # attempts to use FU when none available (Count)
system.cpu0.statFuBusy::SimdFloatCvt                0      0.00%     61.85% # attempts to use FU when none available (Count)
system.cpu0.statFuBusy::SimdFloatDiv                0      0.00%     61.85% # attempts to use FU when none available (Count)
system.cpu0.statFuBusy::SimdFloatMisc               0      0.00%     61.85% # attempts to use FU when none available (Count)
system.cpu0.statFuBusy::SimdFloatMult               0      0.00%     61.85% # attempts to use FU when none available (Count)
system.cpu0.statFuBusy::SimdFloatMultAcc            0      0.00%     61.85% # attempts to use FU when none available (Count)
system.cpu0.statFuBusy::SimdFloatSqrt               0      0.00%     61.85% # attempts to use FU when none available (Count)
system.cpu0.statFuBusy::SimdReduceAdd               0      0.00%     61.85% # attempts to use FU when none available (Count)
system.cpu0.statFuBusy::SimdReduceAlu               0      0.00%     61.85% # attempts to use FU when none available (Count)
system.cpu0.statFuBusy::SimdReduceCmp               0      0.00%     61.85% # attempts to use FU when none available (Count)
system.cpu0.statFuBusy::SimdFloatReduceAdd            0      0.00%     61.85% # attempts to use FU when none available (Count)
system.cpu0.statFuBusy::SimdFloatReduceCmp            0      0.00%     61.85% # attempts to use FU when none available (Count)
system.cpu0.statFuBusy::SimdAes                     0      0.00%     61.85% # attempts to use FU when none available (Count)
system.cpu0.statFuBusy::SimdAesMix                  0      0.00%     61.85% # attempts to use FU when none available (Count)
system.cpu0.statFuBusy::SimdSha1Hash                0      0.00%     61.85% # attempts to use FU when none available (Count)
system.cpu0.statFuBusy::SimdSha1Hash2               0      0.00%     61.85% # attempts to use FU when none available (Count)
system.cpu0.statFuBusy::SimdSha256Hash              0      0.00%     61.85% # attempts to use FU when none available (Count)
system.cpu0.statFuBusy::SimdSha256Hash2             0      0.00%     61.85% # attempts to use FU when none available (Count)
system.cpu0.statFuBusy::SimdShaSigma2               0      0.00%     61.85% # attempts to use FU when none available (Count)
system.cpu0.statFuBusy::SimdShaSigma3               0      0.00%     61.85% # attempts to use FU when none available (Count)
system.cpu0.statFuBusy::SimdPredAlu                 0      0.00%     61.85% # attempts to use FU when none available (Count)
system.cpu0.statFuBusy::MemRead                 15545     22.68%     84.54% # attempts to use FU when none available (Count)
system.cpu0.statFuBusy::MemWrite                 8744     12.76%     97.30% # attempts to use FU when none available (Count)
system.cpu0.statFuBusy::FloatMemRead             1406      2.05%     99.35% # attempts to use FU when none available (Count)
system.cpu0.statFuBusy::FloatMemWrite             447      0.65%    100.00% # attempts to use FU when none available (Count)
system.cpu0.statFuBusy::IprAccess                   0      0.00%    100.00% # attempts to use FU when none available (Count)
system.cpu0.statFuBusy::InstPrefetch                0      0.00%    100.00% # attempts to use FU when none available (Count)
system.cpu0.statIssuedInstType_0::No_OpClass        18045      0.39%      0.39% # Number of instructions issued per FU type, per thread (Count)
system.cpu0.statIssuedInstType_0::IntAlu      3563877     77.48%     77.87% # Number of instructions issued per FU type, per thread (Count)
system.cpu0.statIssuedInstType_0::IntMult           38      0.00%     77.87% # Number of instructions issued per FU type, per thread (Count)
system.cpu0.statIssuedInstType_0::IntDiv        38179      0.83%     78.70% # Number of instructions issued per FU type, per thread (Count)
system.cpu0.statIssuedInstType_0::FloatAdd         4322      0.09%     78.79% # Number of instructions issued per FU type, per thread (Count)
system.cpu0.statIssuedInstType_0::FloatCmp            0      0.00%     78.79% # Number of instructions issued per FU type, per thread (Count)
system.cpu0.statIssuedInstType_0::FloatCvt         1688      0.04%     78.83% # Number of instructions issued per FU type, per thread (Count)
system.cpu0.statIssuedInstType_0::FloatMult            0      0.00%     78.83% # Number of instructions issued per FU type, per thread (Count)
system.cpu0.statIssuedInstType_0::FloatMultAcc            0      0.00%     78.83% # Number of instructions issued per FU type, per thread (Count)
system.cpu0.statIssuedInstType_0::FloatDiv            0      0.00%     78.83% # Number of instructions issued per FU type, per thread (Count)
system.cpu0.statIssuedInstType_0::FloatMisc            0      0.00%     78.83% # Number of instructions issued per FU type, per thread (Count)
system.cpu0.statIssuedInstType_0::FloatSqrt            0      0.00%     78.83% # Number of instructions issued per FU type, per thread (Count)
system.cpu0.statIssuedInstType_0::SimdAdd         8193      0.18%     79.01% # Number of instructions issued per FU type, per thread (Count)
system.cpu0.statIssuedInstType_0::SimdAddAcc            0      0.00%     79.01% # Number of instructions issued per FU type, per thread (Count)
system.cpu0.statIssuedInstType_0::SimdAlu        16696      0.36%     79.37% # Number of instructions issued per FU type, per thread (Count)
system.cpu0.statIssuedInstType_0::SimdCmp            0      0.00%     79.37% # Number of instructions issued per FU type, per thread (Count)
system.cpu0.statIssuedInstType_0::SimdCvt        18238      0.40%     79.77% # Number of instructions issued per FU type, per thread (Count)
system.cpu0.statIssuedInstType_0::SimdMisc         8680      0.19%     79.96% # Number of instructions issued per FU type, per thread (Count)
system.cpu0.statIssuedInstType_0::SimdMult            0      0.00%     79.96% # Number of instructions issued per FU type, per thread (Count)
system.cpu0.statIssuedInstType_0::SimdMultAcc            0      0.00%     79.96% # Number of instructions issued per FU type, per thread (Count)
system.cpu0.statIssuedInstType_0::SimdShift         2442      0.05%     80.01% # Number of instructions issued per FU type, per thread (Count)
system.cpu0.statIssuedInstType_0::SimdShiftAcc            0      0.00%     80.01% # Number of instructions issued per FU type, per thread (Count)
system.cpu0.statIssuedInstType_0::SimdDiv            0      0.00%     80.01% # Number of instructions issued per FU type, per thread (Count)
system.cpu0.statIssuedInstType_0::SimdSqrt            0      0.00%     80.01% # Number of instructions issued per FU type, per thread (Count)
system.cpu0.statIssuedInstType_0::SimdFloatAdd            0      0.00%     80.01% # Number of instructions issued per FU type, per thread (Count)
system.cpu0.statIssuedInstType_0::SimdFloatAlu            0      0.00%     80.01% # Number of instructions issued per FU type, per thread (Count)
system.cpu0.statIssuedInstType_0::SimdFloatCmp            0      0.00%     80.01% # Number of instructions issued per FU type, per thread (Count)
system.cpu0.statIssuedInstType_0::SimdFloatCvt            0      0.00%     80.01% # Number of instructions issued per FU type, per thread (Count)
system.cpu0.statIssuedInstType_0::SimdFloatDiv            0      0.00%     80.01% # Number of instructions issued per FU type, per thread (Count)
system.cpu0.statIssuedInstType_0::SimdFloatMisc            0      0.00%     80.01% # Number of instructions issued per FU type, per thread (Count)
system.cpu0.statIssuedInstType_0::SimdFloatMult            0      0.00%     80.01% # Number of instructions issued per FU type, per thread (Count)
system.cpu0.statIssuedInstType_0::SimdFloatMultAcc            0      0.00%     80.01% # Number of instructions issued per FU type, per thread (Count)
system.cpu0.statIssuedInstType_0::SimdFloatSqrt            0      0.00%     80.01% # Number of instructions issued per FU type, per thread (Count)
system.cpu0.statIssuedInstType_0::SimdReduceAdd            0      0.00%     80.01% # Number of instructions issued per FU type, per thread (Count)
system.cpu0.statIssuedInstType_0::SimdReduceAlu            0      0.00%     80.01% # Number of instructions issued per FU type, per thread (Count)
system.cpu0.statIssuedInstType_0::SimdReduceCmp            0      0.00%     80.01% # Number of instructions issued per FU type, per thread (Count)
system.cpu0.statIssuedInstType_0::SimdFloatReduceAdd            0      0.00%     80.01% # Number of instructions issued per FU type, per thread (Count)
system.cpu0.statIssuedInstType_0::SimdFloatReduceCmp            0      0.00%     80.01% # Number of instructions issued per FU type, per thread (Count)
system.cpu0.statIssuedInstType_0::SimdAes            0      0.00%     80.01% # Number of instructions issued per FU type, per thread (Count)
system.cpu0.statIssuedInstType_0::SimdAesMix            0      0.00%     80.01% # Number of instructions issued per FU type, per thread (Count)
system.cpu0.statIssuedInstType_0::SimdSha1Hash            0      0.00%     80.01% # Number of instructions issued per FU type, per thread (Count)
system.cpu0.statIssuedInstType_0::SimdSha1Hash2            0      0.00%     80.01% # Number of instructions issued per FU type, per thread (Count)
system.cpu0.statIssuedInstType_0::SimdSha256Hash            0      0.00%     80.01% # Number of instructions issued per FU type, per thread (Count)
system.cpu0.statIssuedInstType_0::SimdSha256Hash2            0      0.00%     80.01% # Number of instructions issued per FU type, per thread (Count)
system.cpu0.statIssuedInstType_0::SimdShaSigma2            0      0.00%     80.01% # Number of instructions issued per FU type, per thread (Count)
system.cpu0.statIssuedInstType_0::SimdShaSigma3            0      0.00%     80.01% # Number of instructions issued per FU type, per thread (Count)
system.cpu0.statIssuedInstType_0::SimdPredAlu            0      0.00%     80.01% # Number of instructions issued per FU type, per thread (Count)
system.cpu0.statIssuedInstType_0::MemRead       645418     14.03%     94.04% # Number of instructions issued per FU type, per thread (Count)
system.cpu0.statIssuedInstType_0::MemWrite       223079      4.85%     98.89% # Number of instructions issued per FU type, per thread (Count)
system.cpu0.statIssuedInstType_0::FloatMemRead        33151      0.72%     99.61% # Number of instructions issued per FU type, per thread (Count)
system.cpu0.statIssuedInstType_0::FloatMemWrite        17970      0.39%    100.00% # Number of instructions issued per FU type, per thread (Count)
system.cpu0.statIssuedInstType_0::IprAccess            0      0.00%    100.00% # Number of instructions issued per FU type, per thread (Count)
system.cpu0.statIssuedInstType_0::InstPrefetch            0      0.00%    100.00% # Number of instructions issued per FU type, per thread (Count)
system.cpu0.statIssuedInstType_0::total       4600016                       # Number of instructions issued per FU type, per thread (Count)
system.cpu0.issueRate                        0.466489                       # Inst issue rate ((Count/Cycle))
system.cpu0.fuBusy                              68531                       # FU busy when requested (Count)
system.cpu0.fuBusyRate                       0.014898                       # FU busy rate (busy events/executed inst) ((Count/Count))
system.cpu0.intInstQueueReads                17761857                       # Number of integer instruction queue reads (Count)
system.cpu0.intInstQueueWrites                5836164                       # Number of integer instruction queue writes (Count)
system.cpu0.intInstQueueWakeupAccesses        4431424                       # Number of integer instruction queue wakeup accesses (Count)
system.cpu0.fpInstQueueReads                   227521                       # Number of floating instruction queue reads (Count)
system.cpu0.fpInstQueueWrites                  172527                       # Number of floating instruction queue writes (Count)
system.cpu0.fpInstQueueWakeupAccesses          108802                       # Number of floating instruction queue wakeup accesses (Count)
system.cpu0.vecInstQueueReads                       0                       # Number of vector instruction queue reads (Count)
system.cpu0.vecInstQueueWrites                      0                       # Number of vector instruction queue writes (Count)
system.cpu0.vecInstQueueWakeupAccesses              0                       # Number of vector instruction queue wakeup accesses (Count)
system.cpu0.intAluAccesses                    4535772                       # Number of integer alu accesses (Count)
system.cpu0.fpAluAccesses                      114730                       # Number of floating point alu accesses (Count)
system.cpu0.vecAluAccesses                          0                       # Number of vector alu accesses (Count)
system.cpu0.numInsts                          4569617                       # Number of executed instructions (Count)
system.cpu0.numLoadInsts                       670867                       # Number of load instructions executed (Count)
system.cpu0.numSquashedInsts                    30399                       # Number of squashed instructions skipped in execute (Count)
system.cpu0.numSwp                                  0                       # Number of swp insts executed (Count)
system.cpu0.numNop                                  0                       # Number of nop insts executed (Count)
system.cpu0.numRefs                            909929                       # Number of memory reference insts executed (Count)
system.cpu0.numBranches                        402446                       # Number of branches executed (Count)
system.cpu0.numStoreInsts                      239062                       # Number of stores executed (Count)
system.cpu0.numRate                          0.463407                       # Inst execution rate ((Count/Cycle))
system.cpu0.timesIdled                           2364                       # Number of times that the entire CPU went into an idle state and unscheduled itself (Count)
system.cpu0.idleCycles                        1143008                       # Total number of cycles that the CPU has spent unscheduled due to idling (Cycle)
system.cpu0.committedInsts                    2275537                       # Number of Instructions Simulated (Count)
system.cpu0.committedOps                      3916809                       # Number of Ops (including micro ops) Simulated (Count)
system.cpu0.cpi                              4.333449                       # CPI: Cycles Per Instruction ((Cycle/Count))
system.cpu0.totalCpi                         4.333449                       # CPI: Total CPI of All Threads ((Cycle/Count))
system.cpu0.ipc                              0.230763                       # IPC: Instructions Per Cycle ((Count/Cycle))
system.cpu0.totalIpc                         0.230763                       # IPC: Total IPC of All Threads ((Count/Cycle))
system.cpu0.intRegfileReads                   6207870                       # Number of integer regfile reads (Count)
system.cpu0.intRegfileWrites                  3545023                       # Number of integer regfile writes (Count)
system.cpu0.fpRegfileReads                     147153                       # Number of floating regfile reads (Count)
system.cpu0.fpRegfileWrites                     81848                       # Number of floating regfile writes (Count)
system.cpu0.ccRegfileReads                    2555526                       # number of cc regfile reads (Count)
system.cpu0.ccRegfileWrites                   2119455                       # number of cc regfile writes (Count)
system.cpu0.miscRegfileReads                  1758851                       # number of misc regfile reads (Count)
system.cpu0.miscRegfileWrites                     846                       # number of misc regfile writes (Count)
system.cpu0.MemDepUnit__0.insertedLoads        698632                       # Number of loads inserted to the mem dependence unit. (Count)
system.cpu0.MemDepUnit__0.insertedStores       251285                       # Number of stores inserted to the mem dependence unit. (Count)
system.cpu0.MemDepUnit__0.conflictingLoads        29963                       # Number of conflicting loads. (Count)
system.cpu0.MemDepUnit__0.conflictingStores        20437                       # Number of conflicting stores. (Count)
system.cpu0.MemDepUnit__1.insertedLoads             0                       # Number of loads inserted to the mem dependence unit. (Count)
system.cpu0.MemDepUnit__1.insertedStores            0                       # Number of stores inserted to the mem dependence unit. (Count)
system.cpu0.MemDepUnit__1.conflictingLoads            0                       # Number of conflicting loads. (Count)
system.cpu0.MemDepUnit__1.conflictingStores            0                       # Number of conflicting stores. (Count)
system.cpu0.MemDepUnit__2.insertedLoads             0                       # Number of loads inserted to the mem dependence unit. (Count)
system.cpu0.MemDepUnit__2.insertedStores            0                       # Number of stores inserted to the mem dependence unit. (Count)
system.cpu0.MemDepUnit__2.conflictingLoads            0                       # Number of conflicting loads. (Count)
system.cpu0.MemDepUnit__2.conflictingStores            0                       # Number of conflicting stores. (Count)
system.cpu0.MemDepUnit__3.insertedLoads             0                       # Number of loads inserted to the mem dependence unit. (Count)
system.cpu0.MemDepUnit__3.insertedStores            0                       # Number of stores inserted to the mem dependence unit. (Count)
system.cpu0.MemDepUnit__3.conflictingLoads            0                       # Number of conflicting loads. (Count)
system.cpu0.MemDepUnit__3.conflictingStores            0                       # Number of conflicting stores. (Count)
system.cpu0.branchPred.lookups                 518770                       # Number of BP lookups (Count)
system.cpu0.branchPred.condPredicted           458183                       # Number of conditional branches predicted (Count)
system.cpu0.branchPred.condIncorrect            17064                       # Number of conditional branches incorrect (Count)
system.cpu0.branchPred.BTBLookups              273803                       # Number of BTB lookups (Count)
system.cpu0.branchPred.BTBUpdates                8682                       # Number of BTB updates (Count)
system.cpu0.branchPred.BTBHits                 269728                       # Number of BTB hits (Count)
system.cpu0.branchPred.BTBHitRatio           0.985117                       # BTB Hit Ratio (Ratio)
system.cpu0.branchPred.RASUsed                  13765                       # Number of times the RAS was used to get a target. (Count)
system.cpu0.branchPred.RASIncorrect                 8                       # Number of incorrect RAS predictions. (Count)
system.cpu0.branchPred.indirectLookups           9911                       # Number of indirect predictor lookups. (Count)
system.cpu0.branchPred.indirectHits              5169                       # Number of indirect target hits. (Count)
system.cpu0.branchPred.indirectMisses            4742                       # Number of indirect misses. (Count)
system.cpu0.branchPred.indirectMispredicted         1175                       # Number of mispredicted indirect branches. (Count)
system.cpu0.commit.commitSquashedInsts        1036868                       # The number of squashed insts skipped by commit (Count)
system.cpu0.commit.commitNonSpecStalls            853                       # The number of times commit has been forced to stall to communicate backwards (Count)
system.cpu0.commit.branchMispredicts            18238                       # The number of times a branch was mispredicted (Count)
system.cpu0.commit.numCommittedDist::samples      8567505                       # Number of insts commited each cycle (Count)
system.cpu0.commit.numCommittedDist::mean     0.457170                       # Number of insts commited each cycle (Count)
system.cpu0.commit.numCommittedDist::stdev     1.538480                       # Number of insts commited each cycle (Count)
system.cpu0.commit.numCommittedDist::underflows            0      0.00%      0.00% # Number of insts commited each cycle (Count)
system.cpu0.commit.numCommittedDist::0        7559996     88.24%     88.24% # Number of insts commited each cycle (Count)
system.cpu0.commit.numCommittedDist::1         253443      2.96%     91.20% # Number of insts commited each cycle (Count)
system.cpu0.commit.numCommittedDist::2          94742      1.11%     92.30% # Number of insts commited each cycle (Count)
system.cpu0.commit.numCommittedDist::3         253945      2.96%     95.27% # Number of insts commited each cycle (Count)
system.cpu0.commit.numCommittedDist::4          45453      0.53%     95.80% # Number of insts commited each cycle (Count)
system.cpu0.commit.numCommittedDist::5          99123      1.16%     96.96% # Number of insts commited each cycle (Count)
system.cpu0.commit.numCommittedDist::6          15842      0.18%     97.14% # Number of insts commited each cycle (Count)
system.cpu0.commit.numCommittedDist::7          20120      0.23%     97.38% # Number of insts commited each cycle (Count)
system.cpu0.commit.numCommittedDist::8         224841      2.62%    100.00% # Number of insts commited each cycle (Count)
system.cpu0.commit.numCommittedDist::overflows            0      0.00%    100.00% # Number of insts commited each cycle (Count)
system.cpu0.commit.numCommittedDist::min_value            0                       # Number of insts commited each cycle (Count)
system.cpu0.commit.numCommittedDist::max_value            8                       # Number of insts commited each cycle (Count)
system.cpu0.commit.numCommittedDist::total      8567505                       # Number of insts commited each cycle (Count)
system.cpu0.commit.instsCommitted             2275537                       # Number of instructions committed (Count)
system.cpu0.commit.opsCommitted               3916809                       # Number of ops (including micro ops) committed (Count)
system.cpu0.commit.memRefs                     774470                       # Number of memory references committed (Count)
system.cpu0.commit.loads                       561048                       # Number of loads committed (Count)
system.cpu0.commit.amos                             0                       # Number of atomic instructions committed (Count)
system.cpu0.commit.membars                          2                       # Number of memory barriers committed (Count)
system.cpu0.commit.branches                    366588                       # Number of branches committed (Count)
system.cpu0.commit.vectorInstructions               0                       # Number of committed Vector instructions. (Count)
system.cpu0.commit.floating                     80389                       # Number of committed floating point instructions. (Count)
system.cpu0.commit.integer                    3858051                       # Number of committed integer instructions. (Count)
system.cpu0.commit.functionCalls                 9950                       # Number of function calls committed. (Count)
system.cpu0.commit.committedInstType_0::No_OpClass        10769      0.27%      0.27% # Class of committed instruction (Count)
system.cpu0.commit.committedInstType_0::IntAlu      3051164     77.90%     78.17% # Class of committed instruction (Count)
system.cpu0.commit.committedInstType_0::IntMult           31      0.00%     78.17% # Class of committed instruction (Count)
system.cpu0.commit.committedInstType_0::IntDiv        35830      0.91%     79.09% # Class of committed instruction (Count)
system.cpu0.commit.committedInstType_0::FloatAdd         3175      0.08%     79.17% # Class of committed instruction (Count)
system.cpu0.commit.committedInstType_0::FloatCmp            0      0.00%     79.17% # Class of committed instruction (Count)
system.cpu0.commit.committedInstType_0::FloatCvt         1504      0.04%     79.21% # Class of committed instruction (Count)
system.cpu0.commit.committedInstType_0::FloatMult            0      0.00%     79.21% # Class of committed instruction (Count)
system.cpu0.commit.committedInstType_0::FloatMultAcc            0      0.00%     79.21% # Class of committed instruction (Count)
system.cpu0.commit.committedInstType_0::FloatDiv            0      0.00%     79.21% # Class of committed instruction (Count)
system.cpu0.commit.committedInstType_0::FloatMisc            0      0.00%     79.21% # Class of committed instruction (Count)
system.cpu0.commit.committedInstType_0::FloatSqrt            0      0.00%     79.21% # Class of committed instruction (Count)
system.cpu0.commit.committedInstType_0::SimdAdd         6610      0.17%     79.38% # Class of committed instruction (Count)
system.cpu0.commit.committedInstType_0::SimdAddAcc            0      0.00%     79.38% # Class of committed instruction (Count)
system.cpu0.commit.committedInstType_0::SimdAlu        11926      0.30%     79.68% # Class of committed instruction (Count)
system.cpu0.commit.committedInstType_0::SimdCmp            0      0.00%     79.68% # Class of committed instruction (Count)
system.cpu0.commit.committedInstType_0::SimdCvt        12916      0.33%     80.01% # Class of committed instruction (Count)
system.cpu0.commit.committedInstType_0::SimdMisc         7061      0.18%     80.19% # Class of committed instruction (Count)
system.cpu0.commit.committedInstType_0::SimdMult            0      0.00%     80.19% # Class of committed instruction (Count)
system.cpu0.commit.committedInstType_0::SimdMultAcc            0      0.00%     80.19% # Class of committed instruction (Count)
system.cpu0.commit.committedInstType_0::SimdShift         1353      0.03%     80.23% # Class of committed instruction (Count)
system.cpu0.commit.committedInstType_0::SimdShiftAcc            0      0.00%     80.23% # Class of committed instruction (Count)
system.cpu0.commit.committedInstType_0::SimdDiv            0      0.00%     80.23% # Class of committed instruction (Count)
system.cpu0.commit.committedInstType_0::SimdSqrt            0      0.00%     80.23% # Class of committed instruction (Count)
system.cpu0.commit.committedInstType_0::SimdFloatAdd            0      0.00%     80.23% # Class of committed instruction (Count)
system.cpu0.commit.committedInstType_0::SimdFloatAlu            0      0.00%     80.23% # Class of committed instruction (Count)
system.cpu0.commit.committedInstType_0::SimdFloatCmp            0      0.00%     80.23% # Class of committed instruction (Count)
system.cpu0.commit.committedInstType_0::SimdFloatCvt            0      0.00%     80.23% # Class of committed instruction (Count)
system.cpu0.commit.committedInstType_0::SimdFloatDiv            0      0.00%     80.23% # Class of committed instruction (Count)
system.cpu0.commit.committedInstType_0::SimdFloatMisc            0      0.00%     80.23% # Class of committed instruction (Count)
system.cpu0.commit.committedInstType_0::SimdFloatMult            0      0.00%     80.23% # Class of committed instruction (Count)
system.cpu0.commit.committedInstType_0::SimdFloatMultAcc            0      0.00%     80.23% # Class of committed instruction (Count)
system.cpu0.commit.committedInstType_0::SimdFloatSqrt            0      0.00%     80.23% # Class of committed instruction (Count)
system.cpu0.commit.committedInstType_0::SimdReduceAdd            0      0.00%     80.23% # Class of committed instruction (Count)
system.cpu0.commit.committedInstType_0::SimdReduceAlu            0      0.00%     80.23% # Class of committed instruction (Count)
system.cpu0.commit.committedInstType_0::SimdReduceCmp            0      0.00%     80.23% # Class of committed instruction (Count)
system.cpu0.commit.committedInstType_0::SimdFloatReduceAdd            0      0.00%     80.23% # Class of committed instruction (Count)
system.cpu0.commit.committedInstType_0::SimdFloatReduceCmp            0      0.00%     80.23% # Class of committed instruction (Count)
system.cpu0.commit.committedInstType_0::SimdAes            0      0.00%     80.23% # Class of committed instruction (Count)
system.cpu0.commit.committedInstType_0::SimdAesMix            0      0.00%     80.23% # Class of committed instruction (Count)
system.cpu0.commit.committedInstType_0::SimdSha1Hash            0      0.00%     80.23% # Class of committed instruction (Count)
system.cpu0.commit.committedInstType_0::SimdSha1Hash2            0      0.00%     80.23% # Class of committed instruction (Count)
system.cpu0.commit.committedInstType_0::SimdSha256Hash            0      0.00%     80.23% # Class of committed instruction (Count)
system.cpu0.commit.committedInstType_0::SimdSha256Hash2            0      0.00%     80.23% # Class of committed instruction (Count)
system.cpu0.commit.committedInstType_0::SimdShaSigma2            0      0.00%     80.23% # Class of committed instruction (Count)
system.cpu0.commit.committedInstType_0::SimdShaSigma3            0      0.00%     80.23% # Class of committed instruction (Count)
system.cpu0.commit.committedInstType_0::SimdPredAlu            0      0.00%     80.23% # Class of committed instruction (Count)
system.cpu0.commit.committedInstType_0::MemRead       540007     13.79%     94.01% # Class of committed instruction (Count)
system.cpu0.commit.committedInstType_0::MemWrite       199488      5.09%     99.11% # Class of committed instruction (Count)
system.cpu0.commit.committedInstType_0::FloatMemRead        21041      0.54%     99.64% # Class of committed instruction (Count)
system.cpu0.commit.committedInstType_0::FloatMemWrite        13934      0.36%    100.00% # Class of committed instruction (Count)
system.cpu0.commit.committedInstType_0::IprAccess            0      0.00%    100.00% # Class of committed instruction (Count)
system.cpu0.commit.committedInstType_0::InstPrefetch            0      0.00%    100.00% # Class of committed instruction (Count)
system.cpu0.commit.committedInstType_0::total      3916809                       # Class of committed instruction (Count)
system.cpu0.commit.commitEligibleSamples       224841                       # number cycles where commit BW limit reached (Cycle)
system.cpu0.decode.idleCycles                  469591                       # Number of cycles decode is idle (Cycle)
system.cpu0.decode.blockedCycles              7497687                       # Number of cycles decode is blocked (Cycle)
system.cpu0.decode.runCycles                   523365                       # Number of cycles decode is running (Cycle)
system.cpu0.decode.unblockCycles               208295                       # Number of cycles decode is unblocking (Cycle)
system.cpu0.decode.squashCycles                 18977                       # Number of cycles decode is squashing (Cycle)
system.cpu0.decode.branchResolved              255898                       # Number of times decode resolved a branch (Count)
system.cpu0.decode.branchMispred                 1201                       # Number of times decode detected a branch misprediction (Count)
system.cpu0.decode.decodedInsts               5146172                       # Number of instructions handled by decode (Count)
system.cpu0.decode.squashedInsts                 5641                       # Number of squashed instructions handled by decode (Count)
system.cpu0.fetch.icacheStallCycles            458271                       # Number of cycles fetch is stalled on an Icache miss (Cycle)
system.cpu0.fetch.insts                       3115796                       # Number of instructions fetch has processed (Count)
system.cpu0.fetch.branches                     518770                       # Number of branches that fetch encountered (Count)
system.cpu0.fetch.predictedBranches            288662                       # Number of branches that fetch has predicted taken (Count)
system.cpu0.fetch.cycles                      8010049                       # Number of cycles fetch has run and was not squashing or blocked (Cycle)
system.cpu0.fetch.squashCycles                  40314                       # Number of cycles fetch has spent squashing (Cycle)
system.cpu0.fetch.miscStallCycles               14398                       # Number of cycles fetch has spent waiting on interrupts, or bad addresses, or out of MSHRs (Cycle)
system.cpu0.fetch.pendingTrapStallCycles        15546                       # Number of stall cycles due to pending traps (Cycle)
system.cpu0.fetch.icacheWaitRetryStallCycles       199494                       # Number of stall cycles due to full MSHR (Cycle)
system.cpu0.fetch.cacheLines                   269748                       # Number of cache lines fetched (Count)
system.cpu0.fetch.icacheSquashes                 4701                       # Number of outstanding Icache misses that were squashed (Count)
system.cpu0.fetch.nisnDist::samples           8717915                       # Number of instructions fetched each cycle (Total) (Count)
system.cpu0.fetch.nisnDist::mean             0.625406                       # Number of instructions fetched each cycle (Total) (Count)
system.cpu0.fetch.nisnDist::stdev            1.988188                       # Number of instructions fetched each cycle (Total) (Count)
system.cpu0.fetch.nisnDist::underflows              0      0.00%      0.00% # Number of instructions fetched each cycle (Total) (Count)
system.cpu0.fetch.nisnDist::0                 7816830     89.66%     89.66% # Number of instructions fetched each cycle (Total) (Count)
system.cpu0.fetch.nisnDist::1                   42903      0.49%     90.16% # Number of instructions fetched each cycle (Total) (Count)
system.cpu0.fetch.nisnDist::2                   41305      0.47%     90.63% # Number of instructions fetched each cycle (Total) (Count)
system.cpu0.fetch.nisnDist::3                   69434      0.80%     91.43% # Number of instructions fetched each cycle (Total) (Count)
system.cpu0.fetch.nisnDist::4                  139537      1.60%     93.03% # Number of instructions fetched each cycle (Total) (Count)
system.cpu0.fetch.nisnDist::5                   61966      0.71%     93.74% # Number of instructions fetched each cycle (Total) (Count)
system.cpu0.fetch.nisnDist::6                   36025      0.41%     94.15% # Number of instructions fetched each cycle (Total) (Count)
system.cpu0.fetch.nisnDist::7                   45027      0.52%     94.67% # Number of instructions fetched each cycle (Total) (Count)
system.cpu0.fetch.nisnDist::8                  464888      5.33%    100.00% # Number of instructions fetched each cycle (Total) (Count)
system.cpu0.fetch.nisnDist::overflows               0      0.00%    100.00% # Number of instructions fetched each cycle (Total) (Count)
system.cpu0.fetch.nisnDist::min_value               0                       # Number of instructions fetched each cycle (Total) (Count)
system.cpu0.fetch.nisnDist::max_value               8                       # Number of instructions fetched each cycle (Total) (Count)
system.cpu0.fetch.nisnDist::total             8717915                       # Number of instructions fetched each cycle (Total) (Count)
system.cpu0.fetch.branchRate                 0.052609                       # Number of branch fetches per cycle (Ratio)
system.cpu0.fetch.rate                       0.315974                       # Number of inst fetches per cycle ((Count/Cycle))
system.cpu0.iew.idleCycles                          0                       # Number of cycles IEW is idle (Cycle)
system.cpu0.iew.squashCycles                    18977                       # Number of cycles IEW is squashing (Cycle)
system.cpu0.iew.blockCycles                   4910305                       # Number of cycles IEW is blocking (Cycle)
system.cpu0.iew.unblockCycles                  148635                       # Number of cycles IEW is unblocking (Cycle)
system.cpu0.iew.dispatchedInsts               4962667                       # Number of instructions dispatched to IQ (Count)
system.cpu0.iew.dispSquashedInsts                 994                       # Number of squashed instructions skipped by dispatch (Count)
system.cpu0.iew.dispLoadInsts                  698632                       # Number of dispatched load instructions (Count)
system.cpu0.iew.dispStoreInsts                 251285                       # Number of dispatched store instructions (Count)
system.cpu0.iew.dispNonSpecInsts                  898                       # Number of dispatched non-speculative instructions (Count)
system.cpu0.iew.iqFullEvents                     7294                       # Number of times the IQ has become full, causing a stall (Count)
system.cpu0.iew.lsqFullEvents                  136158                       # Number of times the LSQ has become full, causing a stall (Count)
system.cpu0.iew.memOrderViolationEvents           173                       # Number of memory order violations (Count)
system.cpu0.iew.predictedTakenIncorrect          7855                       # Number of branches that were predicted taken incorrectly (Count)
system.cpu0.iew.predictedNotTakenIncorrect        12603                       # Number of branches that were predicted not taken incorrectly (Count)
system.cpu0.iew.branchMispredicts               20458                       # Number of branch mispredicts detected at execute (Count)
system.cpu0.iew.instsToCommit                 4552007                       # Cumulative count of insts sent to commit (Count)
system.cpu0.iew.writebackCount                4540226                       # Cumulative count of insts written-back (Count)
system.cpu0.iew.producerInst                  3636727                       # Number of instructions producing a value (Count)
system.cpu0.iew.consumerInst                  6666770                       # Number of instructions consuming a value (Count)
system.cpu0.iew.wbRate                       0.460426                       # Insts written-back per cycle ((Count/Cycle))
system.cpu0.iew.wbFanout                     0.545501                       # Average fanout of values written-back ((Count/Count))
system.cpu0.interrupts.clk_domain.clock          8000                       # Clock period in ticks (Tick)
system.cpu0.lsq0.forwLoads                      83058                       # Number of loads that had data forwarded from stores (Count)
system.cpu0.lsq0.squashedLoads                 137584                       # Number of loads squashed (Count)
system.cpu0.lsq0.ignoredResponses                 101                       # Number of memory responses ignored because the instruction is squashed (Count)
system.cpu0.lsq0.memOrderViolation                173                       # Number of memory ordering violations (Count)
system.cpu0.lsq0.squashedStores                 37863                       # Number of stores squashed (Count)
system.cpu0.lsq0.rescheduledLoads                  13                       # Number of loads that were rescheduled (Count)
system.cpu0.lsq0.blockedByCache                  2126                       # Number of times an access to memory failed due to the cache being blocked (Count)
system.cpu0.lsq0.loadToUse::samples            560970                       # Distribution of cycle latency between the first time a load is issued and its completion (Unspecified)
system.cpu0.lsq0.loadToUse::mean            57.357581                       # Distribution of cycle latency between the first time a load is issued and its completion (Unspecified)
system.cpu0.lsq0.loadToUse::stdev          201.999634                       # Distribution of cycle latency between the first time a load is issued and its completion (Unspecified)
system.cpu0.lsq0.loadToUse::0-9                515634     91.92%     91.92% # Distribution of cycle latency between the first time a load is issued and its completion (Unspecified)
system.cpu0.lsq0.loadToUse::10-19                  75      0.01%     91.93% # Distribution of cycle latency between the first time a load is issued and its completion (Unspecified)
system.cpu0.lsq0.loadToUse::20-29                  78      0.01%     91.95% # Distribution of cycle latency between the first time a load is issued and its completion (Unspecified)
system.cpu0.lsq0.loadToUse::30-39                 113      0.02%     91.97% # Distribution of cycle latency between the first time a load is issued and its completion (Unspecified)
system.cpu0.lsq0.loadToUse::40-49                  56      0.01%     91.98% # Distribution of cycle latency between the first time a load is issued and its completion (Unspecified)
system.cpu0.lsq0.loadToUse::50-59                 145      0.03%     92.00% # Distribution of cycle latency between the first time a load is issued and its completion (Unspecified)
system.cpu0.lsq0.loadToUse::60-69                 110      0.02%     92.02% # Distribution of cycle latency between the first time a load is issued and its completion (Unspecified)
system.cpu0.lsq0.loadToUse::70-79                  96      0.02%     92.04% # Distribution of cycle latency between the first time a load is issued and its completion (Unspecified)
system.cpu0.lsq0.loadToUse::80-89                 100      0.02%     92.06% # Distribution of cycle latency between the first time a load is issued and its completion (Unspecified)
system.cpu0.lsq0.loadToUse::90-99                  73      0.01%     92.07% # Distribution of cycle latency between the first time a load is issued and its completion (Unspecified)
system.cpu0.lsq0.loadToUse::100-109                68      0.01%     92.08% # Distribution of cycle latency between the first time a load is issued and its completion (Unspecified)
system.cpu0.lsq0.loadToUse::110-119                78      0.01%     92.10% # Distribution of cycle latency between the first time a load is issued and its completion (Unspecified)
system.cpu0.lsq0.loadToUse::120-129                61      0.01%     92.11% # Distribution of cycle latency between the first time a load is issued and its completion (Unspecified)
system.cpu0.lsq0.loadToUse::130-139                54      0.01%     92.12% # Distribution of cycle latency between the first time a load is issued and its completion (Unspecified)
system.cpu0.lsq0.loadToUse::140-149                74      0.01%     92.13% # Distribution of cycle latency between the first time a load is issued and its completion (Unspecified)
system.cpu0.lsq0.loadToUse::150-159                54      0.01%     92.14% # Distribution of cycle latency between the first time a load is issued and its completion (Unspecified)
system.cpu0.lsq0.loadToUse::160-169                57      0.01%     92.15% # Distribution of cycle latency between the first time a load is issued and its completion (Unspecified)
system.cpu0.lsq0.loadToUse::170-179               125      0.02%     92.17% # Distribution of cycle latency between the first time a load is issued and its completion (Unspecified)
system.cpu0.lsq0.loadToUse::180-189               593      0.11%     92.28% # Distribution of cycle latency between the first time a load is issued and its completion (Unspecified)
system.cpu0.lsq0.loadToUse::190-199                44      0.01%     92.28% # Distribution of cycle latency between the first time a load is issued and its completion (Unspecified)
system.cpu0.lsq0.loadToUse::200-209                52      0.01%     92.29% # Distribution of cycle latency between the first time a load is issued and its completion (Unspecified)
system.cpu0.lsq0.loadToUse::210-219                73      0.01%     92.31% # Distribution of cycle latency between the first time a load is issued and its completion (Unspecified)
system.cpu0.lsq0.loadToUse::220-229               108      0.02%     92.33% # Distribution of cycle latency between the first time a load is issued and its completion (Unspecified)
system.cpu0.lsq0.loadToUse::230-239               164      0.03%     92.36% # Distribution of cycle latency between the first time a load is issued and its completion (Unspecified)
system.cpu0.lsq0.loadToUse::240-249              1064      0.19%     92.54% # Distribution of cycle latency between the first time a load is issued and its completion (Unspecified)
system.cpu0.lsq0.loadToUse::250-259                40      0.01%     92.55% # Distribution of cycle latency between the first time a load is issued and its completion (Unspecified)
system.cpu0.lsq0.loadToUse::260-269                57      0.01%     92.56% # Distribution of cycle latency between the first time a load is issued and its completion (Unspecified)
system.cpu0.lsq0.loadToUse::270-279                79      0.01%     92.58% # Distribution of cycle latency between the first time a load is issued and its completion (Unspecified)
system.cpu0.lsq0.loadToUse::280-289               196      0.03%     92.61% # Distribution of cycle latency between the first time a load is issued and its completion (Unspecified)
system.cpu0.lsq0.loadToUse::290-299               240      0.04%     92.65% # Distribution of cycle latency between the first time a load is issued and its completion (Unspecified)
system.cpu0.lsq0.loadToUse::overflows           41209      7.35%    100.00% # Distribution of cycle latency between the first time a load is issued and its completion (Unspecified)
system.cpu0.lsq0.loadToUse::min_value               2                       # Distribution of cycle latency between the first time a load is issued and its completion (Unspecified)
system.cpu0.lsq0.loadToUse::max_value            2626                       # Distribution of cycle latency between the first time a load is issued and its completion (Unspecified)
system.cpu0.lsq0.loadToUse::total              560970                       # Distribution of cycle latency between the first time a load is issued and its completion (Unspecified)
system.cpu0.mmu.dtb.rdAccesses                 665203                       # TLB accesses on read requests (Count)
system.cpu0.mmu.dtb.wrAccesses                 239073                       # TLB accesses on write requests (Count)
system.cpu0.mmu.dtb.rdMisses                     3167                       # TLB misses on read requests (Count)
system.cpu0.mmu.dtb.wrMisses                      437                       # TLB misses on write requests (Count)
system.cpu0.mmu.dtb.walker.power_state.pwrStateResidencyTicks::UNDEFINED   4985060500                       # Cumulative time (in ticks) in various power states (Tick)
system.cpu0.mmu.itb.rdAccesses                      0                       # TLB accesses on read requests (Count)
system.cpu0.mmu.itb.wrAccesses                 272190                       # TLB accesses on write requests (Count)
system.cpu0.mmu.itb.rdMisses                        0                       # TLB misses on read requests (Count)
system.cpu0.mmu.itb.wrMisses                     2992                       # TLB misses on write requests (Count)
system.cpu0.mmu.itb.walker.power_state.pwrStateResidencyTicks::UNDEFINED   4985060500                       # Cumulative time (in ticks) in various power states (Tick)
system.cpu0.power_state.pwrStateResidencyTicks::ON   4985060500                       # Cumulative time (in ticks) in various power states (Tick)
system.cpu0.rename.squashCycles                 18977                       # Number of cycles rename is squashing (Cycle)
system.cpu0.rename.idleCycles                  548502                       # Number of cycles rename is idle (Cycle)
system.cpu0.rename.blockCycles                6502768                       # Number of cycles rename is blocking (Cycle)
system.cpu0.rename.serializeStallCycles         22064                       # count of cycles rename stalled for serializing inst (Cycle)
system.cpu0.rename.runCycles                   643496                       # Number of cycles rename is running (Cycle)
system.cpu0.rename.unblockCycles               982108                       # Number of cycles rename is unblocking (Cycle)
system.cpu0.rename.renamedInsts               5066013                       # Number of instructions processed by rename (Count)
system.cpu0.rename.ROBFullEvents               101101                       # Number of times rename has blocked due to ROB full (Count)
system.cpu0.rename.IQFullEvents                255142                       # Number of times rename has blocked due to IQ full (Count)
system.cpu0.rename.LQFullEvents                145605                       # Number of times rename has blocked due to LQ full (Count)
system.cpu0.rename.SQFullEvents                524487                       # Number of times rename has blocked due to SQ full (Count)
system.cpu0.rename.fullRegistersEvents           2762                       # Number of times there has been no free registers (Count)
system.cpu0.rename.renamedOperands           10679608                       # Number of destination operands rename has renamed (Count)
system.cpu0.rename.lookups                   19179731                       # Number of register rename lookups that rename has made (Count)
system.cpu0.rename.intLookups                 7134718                       # Number of integer rename lookups (Count)
system.cpu0.rename.fpLookups                   184393                       # Number of floating rename lookups (Count)
system.cpu0.rename.committedMaps              8327384                       # Number of HB maps that are committed (Count)
system.cpu0.rename.undoneMaps                 2352224                       # Number of HB maps that are undone due to squashing (Count)
system.cpu0.rename.serializing                    873                       # count of serializing insts renamed (Count)
system.cpu0.rename.tempSerializing                859                       # count of temporary serializing insts renamed (Count)
system.cpu0.rename.skidInsts                   965417                       # count of insts added to the skid buffer (Count)
system.cpu0.rob.reads                        13288593                       # The number of ROB reads (Count)
system.cpu0.rob.writes                       10057996                       # The number of ROB writes (Count)
system.cpu0.thread_0.numInsts                 2275537                       # Number of Instructions committed (Count)
system.cpu0.thread_0.numOps                   3916809                       # Number of Ops committed (Count)
system.cpu0.thread_0.numMemRefs                     0                       # Number of Memory References (Count)
system.cpu0.workload.numSyscalls                   63                       # Number of system calls (Count)
system.cpu1.numCycles                         9387164                       # Number of cpu cycles simulated (Cycle)
system.cpu1.numWorkItemsStarted                     0                       # Number of work items this cpu started (Count)
system.cpu1.numWorkItemsCompleted                   0                       # Number of work items this cpu completed (Count)
system.cpu1.instsAdded                        4961459                       # Number of instructions added to the IQ (excludes non-spec) (Count)
system.cpu1.nonSpecInstsAdded                    1093                       # Number of non-speculative instructions added to the IQ (Count)
system.cpu1.instsIssued                       4599519                       # Number of instructions issued (Count)
system.cpu1.squashedInstsIssued                  2837                       # Number of squashed instructions issued (Count)
system.cpu1.squashedInstsExamined             1045743                       # Number of squashed instructions iterated over during squash; mainly for profiling (Count)
system.cpu1.squashedOperandsExamined          2258762                       # Number of squashed operands that are examined and possibly removed from graph (Count)
system.cpu1.squashedNonSpecRemoved                240                       # Number of squashed non-spec instructions that were removed (Count)
system.cpu1.numIssuedDist::samples            8349034                       # Number of insts issued each cycle (Count)
system.cpu1.numIssuedDist::mean              0.550904                       # Number of insts issued each cycle (Count)
system.cpu1.numIssuedDist::stdev             1.495475                       # Number of insts issued each cycle (Count)
system.cpu1.numIssuedDist::underflows               0      0.00%      0.00% # Number of insts issued each cycle (Count)
system.cpu1.numIssuedDist::0                  7058773     84.55%     84.55% # Number of insts issued each cycle (Count)
system.cpu1.numIssuedDist::1                   209245      2.51%     87.05% # Number of insts issued each cycle (Count)
system.cpu1.numIssuedDist::2                   236623      2.83%     89.89% # Number of insts issued each cycle (Count)
system.cpu1.numIssuedDist::3                   250075      3.00%     92.88% # Number of insts issued each cycle (Count)
system.cpu1.numIssuedDist::4                   200798      2.41%     95.29% # Number of insts issued each cycle (Count)
system.cpu1.numIssuedDist::5                   152350      1.82%     97.11% # Number of insts issued each cycle (Count)
system.cpu1.numIssuedDist::6                   127868      1.53%     98.64% # Number of insts issued each cycle (Count)
system.cpu1.numIssuedDist::7                    71763      0.86%     99.50% # Number of insts issued each cycle (Count)
system.cpu1.numIssuedDist::8                    41539      0.50%    100.00% # Number of insts issued each cycle (Count)
system.cpu1.numIssuedDist::overflows                0      0.00%    100.00% # Number of insts issued each cycle (Count)
system.cpu1.numIssuedDist::min_value                0                       # Number of insts issued each cycle (Count)
system.cpu1.numIssuedDist::max_value                8                       # Number of insts issued each cycle (Count)
system.cpu1.numIssuedDist::total              8349034                       # Number of insts issued each cycle (Count)
system.cpu1.statFuBusy::No_OpClass                  0      0.00%      0.00% # attempts to use FU when none available (Count)
system.cpu1.statFuBusy::IntAlu                  42057     61.30%     61.30% # attempts to use FU when none available (Count)
system.cpu1.statFuBusy::IntMult                     0      0.00%     61.30% # attempts to use FU when none available (Count)
system.cpu1.statFuBusy::IntDiv                      0      0.00%     61.30% # attempts to use FU when none available (Count)
system.cpu1.statFuBusy::FloatAdd                    0      0.00%     61.30% # attempts to use FU when none available (Count)
system.cpu1.statFuBusy::FloatCmp                    0      0.00%     61.30% # attempts to use FU when none available (Count)
system.cpu1.statFuBusy::FloatCvt                    1      0.00%     61.30% # attempts to use FU when none available (Count)
system.cpu1.statFuBusy::FloatMult                   0      0.00%     61.30% # attempts to use FU when none available (Count)
system.cpu1.statFuBusy::FloatMultAcc                0      0.00%     61.30% # attempts to use FU when none available (Count)
system.cpu1.statFuBusy::FloatDiv                    0      0.00%     61.30% # attempts to use FU when none available (Count)
system.cpu1.statFuBusy::FloatMisc                   0      0.00%     61.30% # attempts to use FU when none available (Count)
system.cpu1.statFuBusy::FloatSqrt                   0      0.00%     61.30% # attempts to use FU when none available (Count)
system.cpu1.statFuBusy::SimdAdd                     0      0.00%     61.30% # attempts to use FU when none available (Count)
system.cpu1.statFuBusy::SimdAddAcc                  0      0.00%     61.30% # attempts to use FU when none available (Count)
system.cpu1.statFuBusy::SimdAlu                   123      0.18%     61.48% # attempts to use FU when none available (Count)
system.cpu1.statFuBusy::SimdCmp                     0      0.00%     61.48% # attempts to use FU when none available (Count)
system.cpu1.statFuBusy::SimdCvt                   120      0.17%     61.65% # attempts to use FU when none available (Count)
system.cpu1.statFuBusy::SimdMisc                    0      0.00%     61.65% # attempts to use FU when none available (Count)
system.cpu1.statFuBusy::SimdMult                    0      0.00%     61.65% # attempts to use FU when none available (Count)
system.cpu1.statFuBusy::SimdMultAcc                 0      0.00%     61.65% # attempts to use FU when none available (Count)
system.cpu1.statFuBusy::SimdShift                 136      0.20%     61.85% # attempts to use FU when none available (Count)
system.cpu1.statFuBusy::SimdShiftAcc                0      0.00%     61.85% # attempts to use FU when none available (Count)
system.cpu1.statFuBusy::SimdDiv                     0      0.00%     61.85% # attempts to use FU when none available (Count)
system.cpu1.statFuBusy::SimdSqrt                    0      0.00%     61.85% # attempts to use FU when none available (Count)
system.cpu1.statFuBusy::SimdFloatAdd                0      0.00%     61.85% # attempts to use FU when none available (Count)
system.cpu1.statFuBusy::SimdFloatAlu                0      0.00%     61.85% # attempts to use FU when none available (Count)
system.cpu1.statFuBusy::SimdFloatCmp                0      0.00%     61.85% # attempts to use FU when none available (Count)
system.cpu1.statFuBusy::SimdFloatCvt                0      0.00%     61.85% # attempts to use FU when none available (Count)
system.cpu1.statFuBusy::SimdFloatDiv                0      0.00%     61.85% # attempts to use FU when none available (Count)
system.cpu1.statFuBusy::SimdFloatMisc               0      0.00%     61.85% # attempts to use FU when none available (Count)
system.cpu1.statFuBusy::SimdFloatMult               0      0.00%     61.85% # attempts to use FU when none available (Count)
system.cpu1.statFuBusy::SimdFloatMultAcc            0      0.00%     61.85% # attempts to use FU when none available (Count)
system.cpu1.statFuBusy::SimdFloatSqrt               0      0.00%     61.85% # attempts to use FU when none available (Count)
system.cpu1.statFuBusy::SimdReduceAdd               0      0.00%     61.85% # attempts to use FU when none available (Count)
system.cpu1.statFuBusy::SimdReduceAlu               0      0.00%     61.85% # attempts to use FU when none available (Count)
system.cpu1.statFuBusy::SimdReduceCmp               0      0.00%     61.85% # attempts to use FU when none available (Count)
system.cpu1.statFuBusy::SimdFloatReduceAdd            0      0.00%     61.85% # attempts to use FU when none available (Count)
system.cpu1.statFuBusy::SimdFloatReduceCmp            0      0.00%     61.85% # attempts to use FU when none available (Count)
system.cpu1.statFuBusy::SimdAes                     0      0.00%     61.85% # attempts to use FU when none available (Count)
system.cpu1.statFuBusy::SimdAesMix                  0      0.00%     61.85% # attempts to use FU when none available (Count)
system.cpu1.statFuBusy::SimdSha1Hash                0      0.00%     61.85% # attempts to use FU when none available (Count)
system.cpu1.statFuBusy::SimdSha1Hash2               0      0.00%     61.85% # attempts to use FU when none available (Count)
system.cpu1.statFuBusy::SimdSha256Hash              0      0.00%     61.85% # attempts to use FU when none available (Count)
system.cpu1.statFuBusy::SimdSha256Hash2             0      0.00%     61.85% # attempts to use FU when none available (Count)
system.cpu1.statFuBusy::SimdShaSigma2               0      0.00%     61.85% # attempts to use FU when none available (Count)
system.cpu1.statFuBusy::SimdShaSigma3               0      0.00%     61.85% # attempts to use FU when none available (Count)
system.cpu1.statFuBusy::SimdPredAlu                 0      0.00%     61.85% # attempts to use FU when none available (Count)
system.cpu1.statFuBusy::MemRead                 15556     22.67%     84.52% # attempts to use FU when none available (Count)
system.cpu1.statFuBusy::MemWrite                 8765     12.77%     97.30% # attempts to use FU when none available (Count)
system.cpu1.statFuBusy::FloatMemRead             1407      2.05%     99.35% # attempts to use FU when none available (Count)
system.cpu1.statFuBusy::FloatMemWrite             447      0.65%    100.00% # attempts to use FU when none available (Count)
system.cpu1.statFuBusy::IprAccess                   0      0.00%    100.00% # attempts to use FU when none available (Count)
system.cpu1.statFuBusy::InstPrefetch                0      0.00%    100.00% # attempts to use FU when none available (Count)
system.cpu1.statIssuedInstType_0::No_OpClass        18071      0.39%      0.39% # Number of instructions issued per FU type, per thread (Count)
system.cpu1.statIssuedInstType_0::IntAlu      3563545     77.48%     77.87% # Number of instructions issued per FU type, per thread (Count)
system.cpu1.statIssuedInstType_0::IntMult           38      0.00%     77.87% # Number of instructions issued per FU type, per thread (Count)
system.cpu1.statIssuedInstType_0::IntDiv        38205      0.83%     78.70% # Number of instructions issued per FU type, per thread (Count)
system.cpu1.statIssuedInstType_0::FloatAdd         4296      0.09%     78.79% # Number of instructions issued per FU type, per thread (Count)
system.cpu1.statIssuedInstType_0::FloatCmp            0      0.00%     78.79% # Number of instructions issued per FU type, per thread (Count)
system.cpu1.statIssuedInstType_0::FloatCvt         1674      0.04%     78.83% # Number of instructions issued per FU type, per thread (Count)
system.cpu1.statIssuedInstType_0::FloatMult            0      0.00%     78.83% # Number of instructions issued per FU type, per thread (Count)
system.cpu1.statIssuedInstType_0::FloatMultAcc            0      0.00%     78.83% # Number of instructions issued per FU type, per thread (Count)
system.cpu1.statIssuedInstType_0::FloatDiv            0      0.00%     78.83% # Number of instructions issued per FU type, per thread (Count)
system.cpu1.statIssuedInstType_0::FloatMisc            0      0.00%     78.83% # Number of instructions issued per FU type, per thread (Count)
system.cpu1.statIssuedInstType_0::FloatSqrt            0      0.00%     78.83% # Number of instructions issued per FU type, per thread (Count)
system.cpu1.statIssuedInstType_0::SimdAdd         8191      0.18%     79.01% # Number of instructions issued per FU type, per thread (Count)
system.cpu1.statIssuedInstType_0::SimdAddAcc            0      0.00%     79.01% # Number of instructions issued per FU type, per thread (Count)
system.cpu1.statIssuedInstType_0::SimdAlu        16715      0.36%     79.37% # Number of instructions issued per FU type, per thread (Count)
system.cpu1.statIssuedInstType_0::SimdCmp            0      0.00%     79.37% # Number of instructions issued per FU type, per thread (Count)
system.cpu1.statIssuedInstType_0::SimdCvt        18248      0.40%     79.77% # Number of instructions issued per FU type, per thread (Count)
system.cpu1.statIssuedInstType_0::SimdMisc         8683      0.19%     79.96% # Number of instructions issued per FU type, per thread (Count)
system.cpu1.statIssuedInstType_0::SimdMult            0      0.00%     79.96% # Number of instructions issued per FU type, per thread (Count)
system.cpu1.statIssuedInstType_0::SimdMultAcc            0      0.00%     79.96% # Number of instructions issued per FU type, per thread (Count)
system.cpu1.statIssuedInstType_0::SimdShift         2418      0.05%     80.01% # Number of instructions issued per FU type, per thread (Count)
system.cpu1.statIssuedInstType_0::SimdShiftAcc            0      0.00%     80.01% # Number of instructions issued per FU type, per thread (Count)
system.cpu1.statIssuedInstType_0::SimdDiv            0      0.00%     80.01% # Number of instructions issued per FU type, per thread (Count)
system.cpu1.statIssuedInstType_0::SimdSqrt            0      0.00%     80.01% # Number of instructions issued per FU type, per thread (Count)
system.cpu1.statIssuedInstType_0::SimdFloatAdd            0      0.00%     80.01% # Number of instructions issued per FU type, per thread (Count)
system.cpu1.statIssuedInstType_0::SimdFloatAlu            0      0.00%     80.01% # Number of instructions issued per FU type, per thread (Count)
system.cpu1.statIssuedInstType_0::SimdFloatCmp            0      0.00%     80.01% # Number of instructions issued per FU type, per thread (Count)
system.cpu1.statIssuedInstType_0::SimdFloatCvt            0      0.00%     80.01% # Number of instructions issued per FU type, per thread (Count)
system.cpu1.statIssuedInstType_0::SimdFloatDiv            0      0.00%     80.01% # Number of instructions issued per FU type, per thread (Count)
system.cpu1.statIssuedInstType_0::SimdFloatMisc            0      0.00%     80.01% # Number of instructions issued per FU type, per thread (Count)
system.cpu1.statIssuedInstType_0::SimdFloatMult            0      0.00%     80.01% # Number of instructions issued per FU type, per thread (Count)
system.cpu1.statIssuedInstType_0::SimdFloatMultAcc            0      0.00%     80.01% # Number of instructions issued per FU type, per thread (Count)
system.cpu1.statIssuedInstType_0::SimdFloatSqrt            0      0.00%     80.01% # Number of instructions issued per FU type, per thread (Count)
system.cpu1.statIssuedInstType_0::SimdReduceAdd            0      0.00%     80.01% # Number of instructions issued per FU type, per thread (Count)
system.cpu1.statIssuedInstType_0::SimdReduceAlu            0      0.00%     80.01% # Number of instructions issued per FU type, per thread (Count)
system.cpu1.statIssuedInstType_0::SimdReduceCmp            0      0.00%     80.01% # Number of instructions issued per FU type, per thread (Count)
system.cpu1.statIssuedInstType_0::SimdFloatReduceAdd            0      0.00%     80.01% # Number of instructions issued per FU type, per thread (Count)
system.cpu1.statIssuedInstType_0::SimdFloatReduceCmp            0      0.00%     80.01% # Number of instructions issued per FU type, per thread (Count)
system.cpu1.statIssuedInstType_0::SimdAes            0      0.00%     80.01% # Number of instructions issued per FU type, per thread (Count)
system.cpu1.statIssuedInstType_0::SimdAesMix            0      0.00%     80.01% # Number of instructions issued per FU type, per thread (Count)
system.cpu1.statIssuedInstType_0::SimdSha1Hash            0      0.00%     80.01% # Number of instructions issued per FU type, per thread (Count)
system.cpu1.statIssuedInstType_0::SimdSha1Hash2            0      0.00%     80.01% # Number of instructions issued per FU type, per thread (Count)
system.cpu1.statIssuedInstType_0::SimdSha256Hash            0      0.00%     80.01% # Number of instructions issued per FU type, per thread (Count)
system.cpu1.statIssuedInstType_0::SimdSha256Hash2            0      0.00%     80.01% # Number of instructions issued per FU type, per thread (Count)
system.cpu1.statIssuedInstType_0::SimdShaSigma2            0      0.00%     80.01% # Number of instructions issued per FU type, per thread (Count)
system.cpu1.statIssuedInstType_0::SimdShaSigma3            0      0.00%     80.01% # Number of instructions issued per FU type, per thread (Count)
system.cpu1.statIssuedInstType_0::SimdPredAlu            0      0.00%     80.01% # Number of instructions issued per FU type, per thread (Count)
system.cpu1.statIssuedInstType_0::MemRead       645311     14.03%     94.04% # Number of instructions issued per FU type, per thread (Count)
system.cpu1.statIssuedInstType_0::MemWrite       222984      4.85%     98.89% # Number of instructions issued per FU type, per thread (Count)
system.cpu1.statIssuedInstType_0::FloatMemRead        33180      0.72%     99.61% # Number of instructions issued per FU type, per thread (Count)
system.cpu1.statIssuedInstType_0::FloatMemWrite        17960      0.39%    100.00% # Number of instructions issued per FU type, per thread (Count)
system.cpu1.statIssuedInstType_0::IprAccess            0      0.00%    100.00% # Number of instructions issued per FU type, per thread (Count)
system.cpu1.statIssuedInstType_0::InstPrefetch            0      0.00%    100.00% # Number of instructions issued per FU type, per thread (Count)
system.cpu1.statIssuedInstType_0::total       4599519                       # Number of instructions issued per FU type, per thread (Count)
system.cpu1.issueRate                        0.489980                       # Inst issue rate ((Count/Cycle))
system.cpu1.fuBusy                              68612                       # FU busy when requested (Count)
system.cpu1.fuBusyRate                       0.014917                       # FU busy rate (busy events/executed inst) ((Count/Count))
system.cpu1.intInstQueueReads                17392045                       # Number of integer instruction queue reads (Count)
system.cpu1.intInstQueueWrites                5835801                       # Number of integer instruction queue writes (Count)
system.cpu1.intInstQueueWakeupAccesses        4430914                       # Number of integer instruction queue wakeup accesses (Count)
system.cpu1.fpInstQueueReads                   227476                       # Number of floating instruction queue reads (Count)
system.cpu1.fpInstQueueWrites                  172661                       # Number of floating instruction queue writes (Count)
system.cpu1.fpInstQueueWakeupAccesses          108779                       # Number of floating instruction queue wakeup accesses (Count)
system.cpu1.vecInstQueueReads                       0                       # Number of vector instruction queue reads (Count)
system.cpu1.vecInstQueueWrites                      0                       # Number of vector instruction queue writes (Count)
system.cpu1.vecInstQueueWakeupAccesses              0                       # Number of vector instruction queue wakeup accesses (Count)
system.cpu1.intAluAccesses                    4535353                       # Number of integer alu accesses (Count)
system.cpu1.fpAluAccesses                      114707                       # Number of floating point alu accesses (Count)
system.cpu1.vecAluAccesses                          0                       # Number of vector alu accesses (Count)
system.cpu1.numInsts                          4569205                       # Number of executed instructions (Count)
system.cpu1.numLoadInsts                       670820                       # Number of load instructions executed (Count)
system.cpu1.numSquashedInsts                    30314                       # Number of squashed instructions skipped in execute (Count)
system.cpu1.numSwp                                  0                       # Number of swp insts executed (Count)
system.cpu1.numNop                                  0                       # Number of nop insts executed (Count)
system.cpu1.numRefs                            909755                       # Number of memory reference insts executed (Count)
system.cpu1.numBranches                        402318                       # Number of branches executed (Count)
[...]
system.ruby.network.ext_out_link_utilization      4197269                       (Unspecified)
system.ruby.network.flit_network_latency | 79891116000                       |209029342500                       | 19538196000                       (Unspecified)
system.ruby.network.flit_queueing_latency |  2155634000                       |  2164206500                       |   148097500                       (Unspecified)
system.ruby.network.flits_injected       |      995960     23.73%     23.73% |     2905119     69.21%     92.94% |      296196      7.06%    100.00% (Unspecified)
system.ruby.network.flits_injected::total      4197275                       (Unspecified)
system.ruby.network.flits_received       |      995960     23.73%     23.73% |     2905114     69.21%     92.94% |      296195      7.06%    100.00% (Unspecified)
system.ruby.network.flits_received::total      4197269                       (Unspecified)
system.ruby.network.int_link_utilization     10424661                       (Unspecified)
system.ruby.network.packet_network_latency | 59409310500                       | 69053956000                       | 19538196000                       (Unspecified)
system.ruby.network.packet_queueing_latency |  1766792000                       |   562486500                       |   148097500                       (Unspecified)
system.ruby.network.packets_injected     |      811492     42.28%     42.28% |      811491     42.28%     84.57% |      296196     15.43%    100.00% (Unspecified)
system.ruby.network.packets_injected::total      1919179                       (Unspecified)
system.ruby.network.packets_received     |      811492     42.28%     42.28% |      811490     42.28%     84.57% |      296195     15.43%    100.00% (Unspecified)
system.ruby.network.packets_received::total      1919177                       (Unspecified)
system.ruby.network.routers00.Var_1                 0                       (Unspecified)
system.ruby.network.routers00.Var_2                 0                       (Unspecified)
system.ruby.network.routers00.Var_3                 0                       (Unspecified)
system.ruby.network.routers00.all_counts            0                       (Unspecified)
system.ruby.network.routers00.buffer_reads       665402                       (Unspecified)
system.ruby.network.routers00.buffer_writes       665402                       (Unspecified)
system.ruby.network.routers00.crossbar_activity       665402                       (Unspecified)
system.ruby.network.routers00.detour_counts            0                       (Unspecified)
system.ruby.network.routers00.regular_var            0                       (Unspecified)
system.ruby.network.routers00.risk_counts            0                       (Unspecified)
system.ruby.network.routers00.sw_input_arbiter_activity       670146                       (Unspecified)
system.ruby.network.routers00.sw_output_arbiter_activity       665402                       (Unspecified)
system.ruby.network.routers01.Var_1                 0                       (Unspecified)
system.ruby.network.routers01.Var_2                 0                       (Unspecified)
system.ruby.network.routers01.Var_3                 0                       (Unspecified)
system.ruby.network.routers01.all_counts            0                       (Unspecified)
system.ruby.network.routers01.buffer_reads       931940                       (Unspecified)
system.ruby.network.routers01.buffer_writes       931940                       (Unspecified)
system.ruby.network.routers01.crossbar_activity       931940                       (Unspecified)
system.ruby.network.routers01.detour_counts            0                       (Unspecified)
system.ruby.network.routers01.regular_var            0                       (Unspecified)
system.ruby.network.routers01.risk_counts            0                       (Unspecified)
system.ruby.network.routers01.sw_input_arbiter_activity       942373                       (Unspecified)
system.ruby.network.routers01.sw_output_arbiter_activity       931940                       (Unspecified)
system.ruby.network.routers02.Var_1                 0                       (Unspecified)
system.ruby.network.routers02.Var_2                 0                       (Unspecified)
system.ruby.network.routers02.Var_3                 0                       (Unspecified)
system.ruby.network.routers02.all_counts            0                       (Unspecified)
system.ruby.network.routers02.buffer_reads       933326                       (Unspecified)
system.ruby.network.routers02.buffer_writes       933326                       (Unspecified)
system.ruby.network.routers02.crossbar_activity       933326                       (Unspecified)
system.ruby.network.routers02.detour_counts            0                       (Unspecified)
system.ruby.network.routers02.regular_var            0                       (Unspecified)
system.ruby.network.routers02.risk_counts            0                       (Unspecified)
system.ruby.network.routers02.sw_input_arbiter_activity       943569                       (Unspecified)
system.ruby.network.routers02.sw_output_arbiter_activity       933326                       (Unspecified)
system.ruby.network.routers03.Var_1                 0                       (Unspecified)
system.ruby.network.routers03.Var_2                 0                       (Unspecified)
system.ruby.network.routers03.Var_3                 0                       (Unspecified)
system.ruby.network.routers03.all_counts            0                       (Unspecified)
system.ruby.network.routers03.buffer_reads       655867                       (Unspecified)
system.ruby.network.routers03.buffer_writes       655867                       (Unspecified)
system.ruby.network.routers03.crossbar_activity       655867                       (Unspecified)
system.ruby.network.routers03.detour_counts            0                       (Unspecified)
system.ruby.network.routers03.regular_var            0                       (Unspecified)
system.ruby.network.routers03.risk_counts            0                       (Unspecified)
system.ruby.network.routers03.sw_input_arbiter_activity       660152                       (Unspecified)
system.ruby.network.routers03.sw_output_arbiter_activity       655867                       (Unspecified)
system.ruby.network.routers04.Var_1                 0                       (Unspecified)
system.ruby.network.routers04.Var_2                 0                       (Unspecified)
system.ruby.network.routers04.Var_3                 0                       (Unspecified)
system.ruby.network.routers04.all_counts            0                       (Unspecified)
system.ruby.network.routers04.buffer_reads       909635                       (Unspecified)
system.ruby.network.routers04.buffer_writes       909635                       (Unspecified)
system.ruby.network.routers04.crossbar_activity       909635                       (Unspecified)
system.ruby.network.routers04.detour_counts            0                       (Unspecified)
system.ruby.network.routers04.regular_var            0                       (Unspecified)
system.ruby.network.routers04.risk_counts            0                       (Unspecified)
system.ruby.network.routers04.sw_input_arbiter_activity       918961                       (Unspecified)
system.ruby.network.routers04.sw_output_arbiter_activity       909635                       (Unspecified)
system.ruby.network.routers05.Var_1                 0                       (Unspecified)
system.ruby.network.routers05.Var_2                 0                       (Unspecified)
system.ruby.network.routers05.Var_3                 0                       (Unspecified)
system.ruby.network.routers05.all_counts            0                       (Unspecified)
system.ruby.network.routers05.buffer_reads      1173801                       (Unspecified)
system.ruby.network.routers05.buffer_writes      1173801                       (Unspecified)
system.ruby.network.routers05.crossbar_activity      1173801                       (Unspecified)
system.ruby.network.routers05.detour_counts            0                       (Unspecified)
system.ruby.network.routers05.regular_var            0                       (Unspecified)
system.ruby.network.routers05.risk_counts            0                       (Unspecified)
system.ruby.network.routers05.sw_input_arbiter_activity      1189469                       (Unspecified)
system.ruby.network.routers05.sw_output_arbiter_activity      1173801                       (Unspecified)
system.ruby.network.routers06.Var_1                 0                       (Unspecified)
system.ruby.network.routers06.Var_2                 0                       (Unspecified)
system.ruby.network.routers06.Var_3                 0                       (Unspecified)
system.ruby.network.routers06.all_counts            0                       (Unspecified)
system.ruby.network.routers06.buffer_reads      1174463                       (Unspecified)
system.ruby.network.routers06.buffer_writes      1174463                       (Unspecified)
system.ruby.network.routers06.crossbar_activity      1174463                       (Unspecified)
system.ruby.network.routers06.detour_counts            0                       (Unspecified)
system.ruby.network.routers06.regular_var            0                       (Unspecified)
system.ruby.network.routers06.risk_counts            0                       (Unspecified)
system.ruby.network.routers06.sw_input_arbiter_activity      1190671                       (Unspecified)
system.ruby.network.routers06.sw_output_arbiter_activity      1174463                       (Unspecified)
system.ruby.network.routers07.Var_1                 0                       (Unspecified)
system.ruby.network.routers07.Var_2                 0                       (Unspecified)
system.ruby.network.routers07.Var_3                 0                       (Unspecified)
system.ruby.network.routers07.all_counts            0                       (Unspecified)
system.ruby.network.routers07.buffer_reads       900405                       (Unspecified)
system.ruby.network.routers07.buffer_writes       900405                       (Unspecified)
system.ruby.network.routers07.crossbar_activity       900405                       (Unspecified)
system.ruby.network.routers07.detour_counts            0                       (Unspecified)
system.ruby.network.routers07.regular_var            0                       (Unspecified)
system.ruby.network.routers07.risk_counts            0                       (Unspecified)
system.ruby.network.routers07.sw_input_arbiter_activity       910042                       (Unspecified)
system.ruby.network.routers07.sw_output_arbiter_activity       900405                       (Unspecified)
system.ruby.network.routers08.Var_1                 0                       (Unspecified)
system.ruby.network.routers08.Var_2                 0                       (Unspecified)
system.ruby.network.routers08.Var_3                 0                       (Unspecified)
system.ruby.network.routers08.all_counts            0                       (Unspecified)
system.ruby.network.routers08.buffer_reads       905290                       (Unspecified)
system.ruby.network.routers08.buffer_writes       905290                       (Unspecified)
system.ruby.network.routers08.crossbar_activity       905290                       (Unspecified)
system.ruby.network.routers08.detour_counts            0                       (Unspecified)
system.ruby.network.routers08.regular_var            0                       (Unspecified)
system.ruby.network.routers08.risk_counts            0                       (Unspecified)
system.ruby.network.routers08.sw_input_arbiter_activity       914521                       (Unspecified)
system.ruby.network.routers08.sw_output_arbiter_activity       905290                       (Unspecified)
system.ruby.network.routers09.Var_1                 0                       (Unspecified)
system.ruby.network.routers09.Var_2                 0                       (Unspecified)
system.ruby.network.routers09.Var_3                 0                       (Unspecified)
system.ruby.network.routers09.all_counts            0                       (Unspecified)
system.ruby.network.routers09.buffer_reads      1176035                       (Unspecified)
system.ruby.network.routers09.buffer_writes      1176035                       (Unspecified)
system.ruby.network.routers09.crossbar_activity      1176035                       (Unspecified)
system.ruby.network.routers09.detour_counts            0                       (Unspecified)
system.ruby.network.routers09.regular_var            0                       (Unspecified)
system.ruby.network.routers09.risk_counts            0                       (Unspecified)
system.ruby.network.routers09.sw_input_arbiter_activity      1191431                       (Unspecified)
system.ruby.network.routers09.sw_output_arbiter_activity      1176035                       (Unspecified)
system.ruby.network.routers10.Var_1                 0                       (Unspecified)
system.ruby.network.routers10.Var_2                 0                       (Unspecified)
system.ruby.network.routers10.Var_3                 0                       (Unspecified)
system.ruby.network.routers10.all_counts            0                       (Unspecified)
system.ruby.network.routers10.buffer_reads      1170951                       (Unspecified)
system.ruby.network.routers10.buffer_writes      1170951                       (Unspecified)
system.ruby.network.routers10.crossbar_activity      1170951                       (Unspecified)
system.ruby.network.routers10.detour_counts            0                       (Unspecified)
system.ruby.network.routers10.regular_var            0                       (Unspecified)
system.ruby.network.routers10.risk_counts            0                       (Unspecified)
system.ruby.network.routers10.sw_input_arbiter_activity      1185799                       (Unspecified)
system.ruby.network.routers10.sw_output_arbiter_activity      1170951                       (Unspecified)
system.ruby.network.routers11.Var_1                 0                       (Unspecified)
system.ruby.network.routers11.Var_2                 0                       (Unspecified)
system.ruby.network.routers11.Var_3                 0                       (Unspecified)
system.ruby.network.routers11.all_counts            0                       (Unspecified)
system.ruby.network.routers11.buffer_reads       892943                       (Unspecified)
system.ruby.network.routers11.buffer_writes       892943                       (Unspecified)
system.ruby.network.routers11.crossbar_activity       892943                       (Unspecified)
system.ruby.network.routers11.detour_counts            0                       (Unspecified)
system.ruby.network.routers11.regular_var            0                       (Unspecified)
system.ruby.network.routers11.risk_counts            0                       (Unspecified)
system.ruby.network.routers11.sw_input_arbiter_activity       902088                       (Unspecified)
system.ruby.network.routers11.sw_output_arbiter_activity       892943                       (Unspecified)
system.ruby.network.routers12.Var_1                 0                       (Unspecified)
system.ruby.network.routers12.Var_2                 0                       (Unspecified)
system.ruby.network.routers12.Var_3                 0                       (Unspecified)
system.ruby.network.routers12.all_counts            0                       (Unspecified)
system.ruby.network.routers12.buffer_reads       651629                       (Unspecified)
system.ruby.network.routers12.buffer_writes       651629                       (Unspecified)
system.ruby.network.routers12.crossbar_activity       651629                       (Unspecified)
system.ruby.network.routers12.detour_counts            0                       (Unspecified)
system.ruby.network.routers12.regular_var            0                       (Unspecified)
system.ruby.network.routers12.risk_counts            0                       (Unspecified)
system.ruby.network.routers12.sw_input_arbiter_activity       656111                       (Unspecified)
system.ruby.network.routers12.sw_output_arbiter_activity       651629                       (Unspecified)
system.ruby.network.routers13.Var_1                 0                       (Unspecified)
system.ruby.network.routers13.Var_2                 0                       (Unspecified)
system.ruby.network.routers13.Var_3                 0                       (Unspecified)
system.ruby.network.routers13.all_counts            0                       (Unspecified)
system.ruby.network.routers13.buffer_reads       919461                       (Unspecified)
system.ruby.network.routers13.buffer_writes       919461                       (Unspecified)
system.ruby.network.routers13.crossbar_activity       919461                       (Unspecified)
system.ruby.network.routers13.detour_counts            0                       (Unspecified)
system.ruby.network.routers13.regular_var            0                       (Unspecified)
system.ruby.network.routers13.risk_counts            0                       (Unspecified)
system.ruby.network.routers13.sw_input_arbiter_activity       929041                       (Unspecified)
system.ruby.network.routers13.sw_output_arbiter_activity       919461                       (Unspecified)
system.ruby.network.routers14.Var_1                 0                       (Unspecified)
system.ruby.network.routers14.Var_2                 0                       (Unspecified)
system.ruby.network.routers14.Var_3                 0                       (Unspecified)
system.ruby.network.routers14.all_counts            0                       (Unspecified)
system.ruby.network.routers14.buffer_reads       913538                       (Unspecified)
system.ruby.network.routers14.buffer_writes       913538                       (Unspecified)
system.ruby.network.routers14.crossbar_activity       913538                       (Unspecified)
system.ruby.network.routers14.detour_counts            0                       (Unspecified)
system.ruby.network.routers14.regular_var            0                       (Unspecified)
system.ruby.network.routers14.risk_counts            0                       (Unspecified)
system.ruby.network.routers14.sw_input_arbiter_activity       923136                       (Unspecified)
system.ruby.network.routers14.sw_output_arbiter_activity       913538                       (Unspecified)
system.ruby.network.routers15.Var_1                 0                       (Unspecified)
system.ruby.network.routers15.Var_2                 0                       (Unspecified)
system.ruby.network.routers15.Var_3                 0                       (Unspecified)
system.ruby.network.routers15.all_counts            0                       (Unspecified)
system.ruby.network.routers15.buffer_reads       647244                       (Unspecified)
system.ruby.network.routers15.buffer_writes       647244                       (Unspecified)
system.ruby.network.routers15.crossbar_activity       647244                       (Unspecified)
system.ruby.network.routers15.detour_counts            0                       (Unspecified)
system.ruby.network.routers15.regular_var            0                       (Unspecified)
system.ruby.network.routers15.risk_counts            0                       (Unspecified)
system.ruby.network.routers15.sw_input_arbiter_activity       651485                       (Unspecified)
system.ruby.network.routers15.sw_output_arbiter_activity       647244                       (Unspecified)

---------- End Simulation Statistics   ----------
