
---------- Begin Simulation Statistics ----------
simSeconds                                   0.005335                       # Number of seconds simulated (Second)
simTicks                                   5335206000                       # Number of ticks simulated (Tick)
finalTick                                  5335206000                       # Number of ticks from beginning of simulation (restored from checkpoints and never reset) (Tick)
simFreq                                  1000000000000                       # The number of ticks per simulated second ((Tick/Second))
hostSeconds                                    724.66                       # Real time elapsed on the host (Second)
hostTickRate                                  7362376                       # The number of ticks simulated per host second (ticks/s) ((Tick/Second))
hostMemory                                   11460512                       # Number of bytes of host memory used (Byte)
simInsts                                     35311520                       # Number of instructions simulated (Count)
simOps                                       61096272                       # Number of ops (including micro ops) simulated (Count)
hostInstRate                                    48729                       # Simulator instruction rate (inst/s) ((Count/Second))
hostOpRate                                      84310                       # Simulator op (including micro ops) rate (op/s) ((Count/Second))
system.clk_domain.clock                          1000                       # Clock period in ticks (Tick)
system.cpu0.numCycles                        10573425                       # Number of cpu cycles simulated (Cycle)
system.cpu0.numWorkItemsStarted                     0                       # Number of work items this cpu started (Count)
system.cpu0.numWorkItemsCompleted                   0                       # Number of work items this cpu completed (Count)
system.cpu0.instsAdded                        4861154                       # Number of instructions added to the IQ (excludes non-spec) (Count)
system.cpu0.nonSpecInstsAdded                    1093                       # Number of non-speculative instructions added to the IQ (Count)
system.cpu0.instsIssued                       4499625                       # Number of instructions issued (Count)
system.cpu0.squashedInstsIssued                  2876                       # Number of squashed instructions issued (Count)
system.cpu0.squashedInstsExamined             1043730                       # Number of squashed instructions iterated over during squash; mainly for profiling (Count)
system.cpu0.squashedOperandsExamined          2255793                       # Number of squashed operands that are examined and possibly removed from graph (Count)
system.cpu0.squashedNonSpecRemoved                240                       # Number of squashed non-spec instructions that were removed (Count)
system.cpu0.numIssuedDist::samples            9352955                       # Number of insts issued each cycle (Count)
system.cpu0.numIssuedDist::mean              0.481091                       # Number of insts issued each cycle (Count)
system.cpu0.numIssuedDist::stdev             1.409609                       # Number of insts issued each cycle (Count)
system.cpu0.numIssuedDist::underflows               0      0.00%      0.00% # Number of insts issued each cycle (Count)
system.cpu0.numIssuedDist::0                  8092620     86.52%     86.52% # Number of insts issued each cycle (Count)
system.cpu0.numIssuedDist::1                   202324      2.16%     88.69% # Number of insts issued each cycle (Count)
system.cpu0.numIssuedDist::2                   231139      2.47%     91.16% # Number of insts issued each cycle (Count)
system.cpu0.numIssuedDist::3                   244542      2.61%     93.77% # Number of insts issued each cycle (Count)
system.cpu0.numIssuedDist::4                   196890      2.11%     95.88% # Number of insts issued each cycle (Count)
system.cpu0.numIssuedDist::5                   149506      1.60%     97.48% # Number of insts issued each cycle (Count)
system.cpu0.numIssuedDist::6                   125537      1.34%     98.82% # Number of insts issued each cycle (Count)
system.cpu0.numIssuedDist::7                    70091      0.75%     99.57% # Number of insts issued each cycle (Count)
system.cpu0.numIssuedDist::8                    40306      0.43%    100.00% # Number of insts issued each cycle (Count)
system.cpu0.numIssuedDist::overflows                0      0.00%    100.00% # Number of insts issued each cycle (Count)
system.cpu0.numIssuedDist::min_value                0                       # Number of insts issued each cycle (Count)
system.cpu0.numIssuedDist::max_value                8                       # Number of insts issued each cycle (Count)
system.cpu0.numIssuedDist::total              9352955                       # Number of insts issued each cycle (Count)
system.cpu0.statFuBusy::No_OpClass                  0      0.00%      0.00% # attempts to use FU when none available (Count)
system.cpu0.statFuBusy::IntAlu                  41744     62.86%     62.86% # attempts to use FU when none available (Count)
system.cpu0.statFuBusy::IntMult                     0      0.00%     62.86% # attempts to use FU when none available (Count)
system.cpu0.statFuBusy::IntDiv                      0      0.00%     62.86% # attempts to use FU when none available (Count)
system.cpu0.statFuBusy::FloatAdd                    0      0.00%     62.86% # attempts to use FU when none available (Count)
system.cpu0.statFuBusy::FloatCmp                    0      0.00%     62.86% # attempts to use FU when none available (Count)
system.cpu0.statFuBusy::FloatCvt                    1      0.00%     62.86% # attempts to use FU when none available (Count)
system.cpu0.statFuBusy::FloatMult                   0      0.00%     62.86% # attempts to use FU when none available (Count)
system.cpu0.statFuBusy::FloatMultAcc                0      0.00%     62.86% # attempts to use FU when none available (Count)
system.cpu0.statFuBusy::FloatDiv                    0      0.00%     62.86% # attempts to use FU when none available (Count)
system.cpu0.statFuBusy::FloatMisc                   0      0.00%     62.86% # attempts to use FU when none available (Count)
system.cpu0.statFuBusy::FloatSqrt                   0      0.00%     62.86% # attempts to use FU when none available (Count)
system.cpu0.statFuBusy::SimdAdd                     0      0.00%     62.86% # attempts to use FU when none available (Count)
system.cpu0.statFuBusy::SimdAddAcc                  0      0.00%     62.86% # attempts to use FU when none available (Count)
system.cpu0.statFuBusy::SimdAlu                   124      0.19%     63.04% # attempts to use FU when none available (Count)
system.cpu0.statFuBusy::SimdCmp                     0      0.00%     63.04% # attempts to use FU when none available (Count)
system.cpu0.statFuBusy::SimdCvt                   127      0.19%     63.23% # attempts to use FU when none available (Count)
system.cpu0.statFuBusy::SimdMisc                    0      0.00%     63.23% # attempts to use FU when none available (Count)
system.cpu0.statFuBusy::SimdMult                    0      0.00%     63.23% # attempts to use FU when none available (Count)
system.cpu0.statFuBusy::SimdMultAcc                 0      0.00%     63.23% # attempts to use FU when none available (Count)
system.cpu0.statFuBusy::SimdShift                 134      0.20%     63.44% # attempts to use FU when none available (Count)
system.cpu0.statFuBusy::SimdShiftAcc                0      0.00%     63.44% # attempts to use FU when none available (Count)
system.cpu0.statFuBusy::SimdDiv                     0      0.00%     63.44% # attempts to use FU when none available (Count)
system.cpu0.statFuBusy::SimdSqrt                    0      0.00%     63.44% # attempts to use FU when none available (Count)
system.cpu0.statFuBusy::SimdFloatAdd                0      0.00%     63.44% # attempts to use FU when none available (Count)
system.cpu0.statFuBusy::SimdFloatAlu                0      0.00%     63.44% # attempts to use FU when none available (Count)
system.cpu0.statFuBusy::SimdFloatCmp                0      0.00%     63.44% # attempts to use FU when none available (Count)
system.cpu0.statFuBusy::SimdFloatCvt                0      0.00%     63.44% # attempts to use FU when none available (Count)
system.cpu0.statFuBusy::SimdFloatDiv                0      0.00%     63.44% # attempts to use FU when none available (Count)
system.cpu0.statFuBusy::SimdFloatMisc               0      0.00%     63.44% # attempts to use FU when none available (Count)
system.cpu0.statFuBusy::SimdFloatMult               0      0.00%     63.44% # attempts to use FU when none available (Count)
system.cpu0.statFuBusy::SimdFloatMultAcc            0      0.00%     63.44% # attempts to use FU when none available (Count)
system.cpu0.statFuBusy::SimdFloatSqrt               0      0.00%     63.44% # attempts to use FU when none available (Count)
system.cpu0.statFuBusy::SimdReduceAdd               0      0.00%     63.44% # attempts to use FU when none available (Count)
system.cpu0.statFuBusy::SimdReduceAlu               0      0.00%     63.44% # attempts to use FU when none available (Count)
system.cpu0.statFuBusy::SimdReduceCmp               0      0.00%     63.44% # attempts to use FU when none available (Count)
system.cpu0.statFuBusy::SimdFloatReduceAdd            0      0.00%     63.44% # attempts to use FU when none available (Count)
system.cpu0.statFuBusy::SimdFloatReduceCmp            0      0.00%     63.44% # attempts to use FU when none available (Count)
system.cpu0.statFuBusy::SimdAes                     0      0.00%     63.44% # attempts to use FU when none available (Count)
system.cpu0.statFuBusy::SimdAesMix                  0      0.00%     63.44% # attempts to use FU when none available (Count)
system.cpu0.statFuBusy::SimdSha1Hash                0      0.00%     63.44% # attempts to use FU when none available (Count)
system.cpu0.statFuBusy::SimdSha1Hash2               0      0.00%     63.44% # attempts to use FU when none available (Count)
system.cpu0.statFuBusy::SimdSha256Hash              0      0.00%     63.44% # attempts to use FU when none available (Count)
system.cpu0.statFuBusy::SimdSha256Hash2             0      0.00%     63.44% # attempts to use FU when none available (Count)
system.cpu0.statFuBusy::SimdShaSigma2               0      0.00%     63.44% # attempts to use FU when none available (Count)
system.cpu0.statFuBusy::SimdShaSigma3               0      0.00%     63.44% # attempts to use FU when none available (Count)
system.cpu0.statFuBusy::SimdPredAlu                 0      0.00%     63.44% # attempts to use FU when none available (Count)
system.cpu0.statFuBusy::MemRead                 13855     20.86%     84.30% # attempts to use FU when none available (Count)
system.cpu0.statFuBusy::MemWrite                 8566     12.90%     97.20% # attempts to use FU when none available (Count)
system.cpu0.statFuBusy::FloatMemRead             1409      2.12%     99.32% # attempts to use FU when none available (Count)
system.cpu0.statFuBusy::FloatMemWrite             453      0.68%    100.00% # attempts to use FU when none available (Count)
system.cpu0.statFuBusy::IprAccess                   0      0.00%    100.00% # attempts to use FU when none available (Count)
system.cpu0.statFuBusy::InstPrefetch                0      0.00%    100.00% # attempts to use FU when none available (Count)
system.cpu0.statIssuedInstType_0::No_OpClass        18273      0.41%      0.41% # Number of instructions issued per FU type, per thread (Count)
system.cpu0.statIssuedInstType_0::IntAlu      3502054     77.83%     78.24% # Number of instructions issued per FU type, per thread (Count)
system.cpu0.statIssuedInstType_0::IntMult           38      0.00%     78.24% # Number of instructions issued per FU type, per thread (Count)
system.cpu0.statIssuedInstType_0::IntDiv        38168      0.85%     79.09% # Number of instructions issued per FU type, per thread (Count)
system.cpu0.statIssuedInstType_0::FloatAdd         4286      0.10%     79.18% # Number of instructions issued per FU type, per thread (Count)
system.cpu0.statIssuedInstType_0::FloatCmp            0      0.00%     79.18% # Number of instructions issued per FU type, per thread (Count)
system.cpu0.statIssuedInstType_0::FloatCvt         1688      0.04%     79.22% # Number of instructions issued per FU type, per thread (Count)
system.cpu0.statIssuedInstType_0::FloatMult            0      0.00%     79.22% # Number of instructions issued per FU type, per thread (Count)
system.cpu0.statIssuedInstType_0::FloatMultAcc            0      0.00%     79.22% # Number of instructions issued per FU type, per thread (Count)
system.cpu0.statIssuedInstType_0::FloatDiv            0      0.00%     79.22% # Number of instructions issued per FU type, per thread (Count)
system.cpu0.statIssuedInstType_0::FloatMisc            0      0.00%     79.22% # Number of instructions issued per FU type, per thread (Count)
system.cpu0.statIssuedInstType_0::FloatSqrt            0      0.00%     79.22% # Number of instructions issued per FU type, per thread (Count)
system.cpu0.statIssuedInstType_0::SimdAdd         8192      0.18%     79.40% # Number of instructions issued per FU type, per thread (Count)
system.cpu0.statIssuedInstType_0::SimdAddAcc            0      0.00%     79.40% # Number of instructions issued per FU type, per thread (Count)
system.cpu0.statIssuedInstType_0::SimdAlu        16706      0.37%     79.77% # Number of instructions issued per FU type, per thread (Count)
system.cpu0.statIssuedInstType_0::SimdCmp            0      0.00%     79.77% # Number of instructions issued per FU type, per thread (Count)
system.cpu0.statIssuedInstType_0::SimdCvt        18224      0.41%     80.18% # Number of instructions issued per FU type, per thread (Count)
system.cpu0.statIssuedInstType_0::SimdMisc         8675      0.19%     80.37% # Number of instructions issued per FU type, per thread (Count)
system.cpu0.statIssuedInstType_0::SimdMult            0      0.00%     80.37% # Number of instructions issued per FU type, per thread (Count)
system.cpu0.statIssuedInstType_0::SimdMultAcc            0      0.00%     80.37% # Number of instructions issued per FU type, per thread (Count)
system.cpu0.statIssuedInstType_0::SimdShift         2427      0.05%     80.42% # Number of instructions issued per FU type, per thread (Count)
system.cpu0.statIssuedInstType_0::SimdShiftAcc            0      0.00%     80.42% # Number of instructions issued per FU type, per thread (Count)
system.cpu0.statIssuedInstType_0::SimdDiv            0      0.00%     80.42% # Number of instructions issued per FU type, per thread (Count)
system.cpu0.statIssuedInstType_0::SimdSqrt            0      0.00%     80.42% # Number of instructions issued per FU type, per thread (Count)
system.cpu0.statIssuedInstType_0::SimdFloatAdd            0      0.00%     80.42% # Number of instructions issued per FU type, per thread (Count)
system.cpu0.statIssuedInstType_0::SimdFloatAlu            0      0.00%     80.42% # Number of instructions issued per FU type, per thread (Count)
system.cpu0.statIssuedInstType_0::SimdFloatCmp            0      0.00%     80.42% # Number of instructions issued per FU type, per thread (Count)
system.cpu0.statIssuedInstType_0::SimdFloatCvt            0      0.00%     80.42% # Number of instructions issued per FU type, per thread (Count)
system.cpu0.statIssuedInstType_0::SimdFloatDiv            0      0.00%     80.42% # Number of instructions issued per FU type, per thread (Count)
system.cpu0.statIssuedInstType_0::SimdFloatMisc            0      0.00%     80.42% # Number of instructions issued per FU type, per thread (Count)
system.cpu0.statIssuedInstType_0::SimdFloatMult            0      0.00%     80.42% # Number of instructions issued per FU type, per thread (Count)
system.cpu0.statIssuedInstType_0::SimdFloatMultAcc            0      0.00%     80.42% # Number of instructions issued per FU type, per thread (Count)
system.cpu0.statIssuedInstType_0::SimdFloatSqrt            0      0.00%     80.42% # Number of instructions issued per FU type, per thread (Count)
system.cpu0.statIssuedInstType_0::SimdReduceAdd            0      0.00%     80.42% # Number of instructions issued per FU type, per thread (Count)
system.cpu0.statIssuedInstType_0::SimdReduceAlu            0      0.00%     80.42% # Number of instructions issued per FU type, per thread (Count)
system.cpu0.statIssuedInstType_0::SimdReduceCmp            0      0.00%     80.42% # Number of instructions issued per FU type, per thread (Count)
system.cpu0.statIssuedInstType_0::SimdFloatReduceAdd            0      0.00%     80.42% # Number of instructions issued per FU type, per thread (Count)
system.cpu0.statIssuedInstType_0::SimdFloatReduceCmp            0      0.00%     80.42% # Number of instructions issued per FU type, per thread (Count)
system.cpu0.statIssuedInstType_0::SimdAes            0      0.00%     80.42% # Number of instructions issued per FU type, per thread (Count)
system.cpu0.statIssuedInstType_0::SimdAesMix            0      0.00%     80.42% # Number of instructions issued per FU type, per thread (Count)
system.cpu0.statIssuedInstType_0::SimdSha1Hash            0      0.00%     80.42% # Number of instructions issued per FU type, per thread (Count)
system.cpu0.statIssuedInstType_0::SimdSha1Hash2            0      0.00%     80.42% # Number of instructions issued per FU type, per thread (Count)
system.cpu0.statIssuedInstType_0::SimdSha256Hash            0      0.00%     80.42% # Number of instructions issued per FU type, per thread (Count)
system.cpu0.statIssuedInstType_0::SimdSha256Hash2            0      0.00%     80.42% # Number of instructions issued per FU type, per thread (Count)
system.cpu0.statIssuedInstType_0::SimdShaSigma2            0      0.00%     80.42% # Number of instructions issued per FU type, per thread (Count)
system.cpu0.statIssuedInstType_0::SimdShaSigma3            0      0.00%     80.42% # Number of instructions issued per FU type, per thread (Count)
system.cpu0.statIssuedInstType_0::SimdPredAlu            0      0.00%     80.42% # Number of instructions issued per FU type, per thread (Count)
system.cpu0.statIssuedInstType_0::MemRead       623532     13.86%     94.28% # Number of instructions issued per FU type, per thread (Count)
system.cpu0.statIssuedInstType_0::MemWrite       206223      4.58%     98.86% # Number of instructions issued per FU type, per thread (Count)
system.cpu0.statIssuedInstType_0::FloatMemRead        33167      0.74%     99.60% # Number of instructions issued per FU type, per thread (Count)
system.cpu0.statIssuedInstType_0::FloatMemWrite        17972      0.40%    100.00% # Number of instructions issued per FU type, per thread (Count)
system.cpu0.statIssuedInstType_0::IprAccess            0      0.00%    100.00% # Number of instructions issued per FU type, per thread (Count)
system.cpu0.statIssuedInstType_0::InstPrefetch            0      0.00%    100.00% # Number of instructions issued per FU type, per thread (Count)
system.cpu0.statIssuedInstType_0::total       4499625                       # Number of instructions issued per FU type, per thread (Count)
system.cpu0.issueRate                        0.425560                       # Inst issue rate ((Count/Cycle))
system.cpu0.fuBusy                              66413                       # FU busy when requested (Count)
system.cpu0.fuBusyRate                       0.014760                       # FU busy rate (busy events/executed inst) ((Count/Count))
system.cpu0.intInstQueueReads                18194056                       # Number of integer instruction queue reads (Count)
system.cpu0.intInstQueueWrites                5733545                       # Number of integer instruction queue writes (Count)
system.cpu0.intInstQueueWakeupAccesses        4330933                       # Number of integer instruction queue wakeup accesses (Count)
system.cpu0.fpInstQueueReads                   227438                       # Number of floating instruction queue reads (Count)
system.cpu0.fpInstQueueWrites                  172595                       # Number of floating instruction queue writes (Count)
system.cpu0.fpInstQueueWakeupAccesses          108748                       # Number of floating instruction queue wakeup accesses (Count)
system.cpu0.vecInstQueueReads                       0                       # Number of vector instruction queue reads (Count)
system.cpu0.vecInstQueueWrites                      0                       # Number of vector instruction queue writes (Count)
system.cpu0.vecInstQueueWakeupAccesses              0                       # Number of vector instruction queue wakeup accesses (Count)
system.cpu0.intAluAccesses                    4433070                       # Number of integer alu accesses (Count)
system.cpu0.fpAluAccesses                      114695                       # Number of floating point alu accesses (Count)
system.cpu0.vecAluAccesses                          0                       # Number of vector alu accesses (Count)
system.cpu0.numInsts                          4469319                       # Number of executed instructions (Count)
system.cpu0.numLoadInsts                       649036                       # Number of load instructions executed (Count)
system.cpu0.numSquashedInsts                    30306                       # Number of squashed instructions skipped in execute (Count)
system.cpu0.numSwp                                  0                       # Number of swp insts executed (Count)
system.cpu0.numNop                                  0                       # Number of nop insts executed (Count)
system.cpu0.numRefs                            871232                       # Number of memory reference insts executed (Count)
system.cpu0.numBranches                        398312                       # Number of branches executed (Count)
system.cpu0.numStoreInsts                      222196                       # Number of stores executed (Count)
system.cpu0.numRate                          0.422694                       # Inst execution rate ((Count/Cycle))
system.cpu0.timesIdled                           2389                       # Number of times that the entire CPU went into an idle state and unscheduled itself (Count)
system.cpu0.idleCycles                        1220470                       # Total number of cycles that the CPU has spent unscheduled due to idling (Cycle)
system.cpu0.committedInsts                    2206970                       # Number of Instructions Simulated (Count)
system.cpu0.committedOps                      3818517                       # Number of Ops (including micro ops) Simulated (Count)
system.cpu0.cpi                              4.790924                       # CPI: Cycles Per Instruction ((Cycle/Count))
system.cpu0.totalCpi                         4.790924                       # CPI: Total CPI of All Threads ((Cycle/Count))
system.cpu0.ipc                              0.208728                       # IPC: Instructions Per Cycle ((Count/Cycle))
system.cpu0.totalIpc                         0.208728                       # IPC: Total IPC of All Threads ((Count/Cycle))
system.cpu0.intRegfileReads                   6058741                       # Number of integer regfile reads (Count)
system.cpu0.intRegfileWrites                  3468348                       # Number of integer regfile writes (Count)
system.cpu0.fpRegfileReads                     147110                       # Number of floating regfile reads (Count)
system.cpu0.fpRegfileWrites                     81803                       # Number of floating regfile writes (Count)
system.cpu0.ccRegfileReads                    2523125                       # number of cc regfile reads (Count)
system.cpu0.ccRegfileWrites                   2064836                       # number of cc regfile writes (Count)
system.cpu0.miscRegfileReads                  1712082                       # number of misc regfile reads (Count)
system.cpu0.miscRegfileWrites                     846                       # number of misc regfile writes (Count)
system.cpu0.MemDepUnit__0.insertedLoads        676752                       # Number of loads inserted to the mem dependence unit. (Count)
system.cpu0.MemDepUnit__0.insertedStores       234365                       # Number of stores inserted to the mem dependence unit. (Count)
system.cpu0.MemDepUnit__0.conflictingLoads        24110                       # Number of conflicting loads. (Count)
system.cpu0.MemDepUnit__0.conflictingStores        14098                       # Number of conflicting stores. (Count)
system.cpu0.MemDepUnit__1.insertedLoads             0                       # Number of loads inserted to the mem dependence unit. (Count)
system.cpu0.MemDepUnit__1.insertedStores            0                       # Number of stores inserted to the mem dependence unit. (Count)
system.cpu0.MemDepUnit__1.conflictingLoads            0                       # Number of conflicting loads. (Count)
system.cpu0.MemDepUnit__1.conflictingStores            0                       # Number of conflicting stores. (Count)
system.cpu0.MemDepUnit__2.insertedLoads             0                       # Number of loads inserted to the mem dependence unit. (Count)
system.cpu0.MemDepUnit__2.insertedStores            0                       # Number of stores inserted to the mem dependence unit. (Count)
system.cpu0.MemDepUnit__2.conflictingLoads            0                       # Number of conflicting loads. (Count)
system.cpu0.MemDepUnit__2.conflictingStores            0                       # Number of conflicting stores. (Count)
system.cpu0.MemDepUnit__3.insertedLoads             0                       # Number of loads inserted to the mem dependence unit. (Count)
system.cpu0.MemDepUnit__3.insertedStores            0                       # Number of stores inserted to the mem dependence unit. (Count)
system.cpu0.MemDepUnit__3.conflictingLoads            0                       # Number of conflicting loads. (Count)
system.cpu0.MemDepUnit__3.conflictingStores            0                       # Number of conflicting stores. (Count)
system.cpu0.branchPred.lookups                 514387                       # Number of BP lookups (Count)
system.cpu0.branchPred.condPredicted           454946                       # Number of conditional branches predicted (Count)
system.cpu0.branchPred.condIncorrect            17005                       # Number of conditional branches incorrect (Count)
system.cpu0.branchPred.BTBLookups              271169                       # Number of BTB lookups (Count)
system.cpu0.branchPred.BTBUpdates                8636                       # Number of BTB updates (Count)
system.cpu0.branchPred.BTBHits                 267112                       # Number of BTB hits (Count)
system.cpu0.branchPred.BTBHitRatio           0.985039                       # BTB Hit Ratio (Ratio)
system.cpu0.branchPred.RASUsed                  13576                       # Number of times the RAS was used to get a target. (Count)
system.cpu0.branchPred.RASIncorrect                 8                       # Number of incorrect RAS predictions. (Count)
system.cpu0.branchPred.indirectLookups           9843                       # Number of indirect predictor lookups. (Count)
system.cpu0.branchPred.indirectHits              5166                       # Number of indirect target hits. (Count)
system.cpu0.branchPred.indirectMisses            4677                       # Number of indirect misses. (Count)
system.cpu0.branchPred.indirectMispredicted         1175                       # Number of mispredicted indirect branches. (Count)
system.cpu0.commit.commitSquashedInsts        1034730                       # The number of squashed insts skipped by commit (Count)
system.cpu0.commit.commitNonSpecStalls            853                       # The number of times commit has been forced to stall to communicate backwards (Count)
system.cpu0.commit.branchMispredicts            18440                       # The number of times a branch was mispredicted (Count)
system.cpu0.commit.numCommittedDist::samples      9202772                       # Number of insts commited each cycle (Count)
system.cpu0.commit.numCommittedDist::mean     0.414931                       # Number of insts commited each cycle (Count)
system.cpu0.commit.numCommittedDist::stdev     1.472929                       # Number of insts commited each cycle (Count)
system.cpu0.commit.numCommittedDist::underflows            0      0.00%      0.00% # Number of insts commited each cycle (Count)
system.cpu0.commit.numCommittedDist::0        8225502     89.38%     89.38% # Number of insts commited each cycle (Count)
system.cpu0.commit.numCommittedDist::1         241670      2.63%     92.01% # Number of insts commited each cycle (Count)
system.cpu0.commit.numCommittedDist::2          92494      1.01%     93.01% # Number of insts commited each cycle (Count)
system.cpu0.commit.numCommittedDist::3         245543      2.67%     95.68% # Number of insts commited each cycle (Count)
system.cpu0.commit.numCommittedDist::4          45649      0.50%     96.18% # Number of insts commited each cycle (Count)
system.cpu0.commit.numCommittedDist::5          97398      1.06%     97.23% # Number of insts commited each cycle (Count)
system.cpu0.commit.numCommittedDist::6          15689      0.17%     97.40% # Number of insts commited each cycle (Count)
system.cpu0.commit.numCommittedDist::7          19106      0.21%     97.61% # Number of insts commited each cycle (Count)
system.cpu0.commit.numCommittedDist::8         219721      2.39%    100.00% # Number of insts commited each cycle (Count)
system.cpu0.commit.numCommittedDist::overflows            0      0.00%    100.00% # Number of insts commited each cycle (Count)
system.cpu0.commit.numCommittedDist::min_value            0                       # Number of insts commited each cycle (Count)
system.cpu0.commit.numCommittedDist::max_value            8                       # Number of insts commited each cycle (Count)
system.cpu0.commit.numCommittedDist::total      9202772                       # Number of insts commited each cycle (Count)
system.cpu0.commit.instsCommitted             2206970                       # Number of instructions committed (Count)
system.cpu0.commit.opsCommitted               3818517                       # Number of ops (including micro ops) committed (Count)
system.cpu0.commit.memRefs                     736402                       # Number of memory references committed (Count)
system.cpu0.commit.loads                       539658                       # Number of loads committed (Count)
system.cpu0.commit.amos                             0                       # Number of atomic instructions committed (Count)
system.cpu0.commit.membars                          2                       # Number of memory barriers committed (Count)
system.cpu0.commit.branches                    362692                       # Number of branches committed (Count)
system.cpu0.commit.vectorInstructions               0                       # Number of committed Vector instructions. (Count)
system.cpu0.commit.floating                     80413                       # Number of committed floating point instructions. (Count)
system.cpu0.commit.integer                    3759781                       # Number of committed integer instructions. (Count)
system.cpu0.commit.functionCalls                 9775                       # Number of function calls committed. (Count)
system.cpu0.commit.committedInstType_0::No_OpClass        10747      0.28%      0.28% # Class of committed instruction (Count)
system.cpu0.commit.committedInstType_0::IntAlu      2990962     78.33%     78.61% # Class of committed instruction (Count)
system.cpu0.commit.committedInstType_0::IntMult           31      0.00%     78.61% # Class of committed instruction (Count)
system.cpu0.commit.committedInstType_0::IntDiv        35830      0.94%     79.55% # Class of committed instruction (Count)
system.cpu0.commit.committedInstType_0::FloatAdd         3175      0.08%     79.63% # Class of committed instruction (Count)
system.cpu0.commit.committedInstType_0::FloatCmp            0      0.00%     79.63% # Class of committed instruction (Count)
system.cpu0.commit.committedInstType_0::FloatCvt         1504      0.04%     79.67% # Class of committed instruction (Count)
system.cpu0.commit.committedInstType_0::FloatMult            0      0.00%     79.67% # Class of committed instruction (Count)
system.cpu0.commit.committedInstType_0::FloatMultAcc            0      0.00%     79.67% # Class of committed instruction (Count)
system.cpu0.commit.committedInstType_0::FloatDiv            0      0.00%     79.67% # Class of committed instruction (Count)
system.cpu0.commit.committedInstType_0::FloatMisc            0      0.00%     79.67% # Class of committed instruction (Count)
system.cpu0.commit.committedInstType_0::FloatSqrt            0      0.00%     79.67% # Class of committed instruction (Count)
system.cpu0.commit.committedInstType_0::SimdAdd         6610      0.17%     79.84% # Class of committed instruction (Count)
system.cpu0.commit.committedInstType_0::SimdAddAcc            0      0.00%     79.84% # Class of committed instruction (Count)
system.cpu0.commit.committedInstType_0::SimdAlu        11926      0.31%     80.16% # Class of committed instruction (Count)
system.cpu0.commit.committedInstType_0::SimdCmp            0      0.00%     80.16% # Class of committed instruction (Count)
system.cpu0.commit.committedInstType_0::SimdCvt        12916      0.34%     80.49% # Class of committed instruction (Count)
system.cpu0.commit.committedInstType_0::SimdMisc         7061      0.18%     80.68% # Class of committed instruction (Count)
system.cpu0.commit.committedInstType_0::SimdMult            0      0.00%     80.68% # Class of committed instruction (Count)
system.cpu0.commit.committedInstType_0::SimdMultAcc            0      0.00%     80.68% # Class of committed instruction (Count)
system.cpu0.commit.committedInstType_0::SimdShift         1353      0.04%     80.71% # Class of committed instruction (Count)
system.cpu0.commit.committedInstType_0::SimdShiftAcc            0      0.00%     80.71% # Class of committed instruction (Count)
system.cpu0.commit.committedInstType_0::SimdDiv            0      0.00%     80.71% # Class of committed instruction (Count)
system.cpu0.commit.committedInstType_0::SimdSqrt            0      0.00%     80.71% # Class of committed instruction (Count)
system.cpu0.commit.committedInstType_0::SimdFloatAdd            0      0.00%     80.71% # Class of committed instruction (Count)
system.cpu0.commit.committedInstType_0::SimdFloatAlu            0      0.00%     80.71% # Class of committed instruction (Count)
system.cpu0.commit.committedInstType_0::SimdFloatCmp            0      0.00%     80.71% # Class of committed instruction (Count)
system.cpu0.commit.committedInstType_0::SimdFloatCvt            0      0.00%     80.71% # Class of committed instruction (Count)
system.cpu0.commit.committedInstType_0::SimdFloatDiv            0      0.00%     80.71% # Class of committed instruction (Count)
system.cpu0.commit.committedInstType_0::SimdFloatMisc            0      0.00%     80.71% # Class of committed instruction (Count)
system.cpu0.commit.committedInstType_0::SimdFloatMult            0      0.00%     80.71% # Class of committed instruction (Count)
system.cpu0.commit.committedInstType_0::SimdFloatMultAcc            0      0.00%     80.71% # Class of committed instruction (Count)
system.cpu0.commit.committedInstType_0::SimdFloatSqrt            0      0.00%     80.71% # Class of committed instruction (Count)
system.cpu0.commit.committedInstType_0::SimdReduceAdd            0      0.00%     80.71% # Class of committed instruction (Count)
system.cpu0.commit.committedInstType_0::SimdReduceAlu            0      0.00%     80.71% # Class of committed instruction (Count)
system.cpu0.commit.committedInstType_0::SimdReduceCmp            0      0.00%     80.71% # Class of committed instruction (Count)
system.cpu0.commit.committedInstType_0::SimdFloatReduceAdd            0      0.00%     80.71% # Class of committed instruction (Count)
system.cpu0.commit.committedInstType_0::SimdFloatReduceCmp            0      0.00%     80.71% # Class of committed instruction (Count)
system.cpu0.commit.committedInstType_0::SimdAes            0      0.00%     80.71% # Class of committed instruction (Count)
system.cpu0.commit.committedInstType_0::SimdAesMix            0      0.00%     80.71% # Class of committed instruction (Count)
system.cpu0.commit.committedInstType_0::SimdSha1Hash            0      0.00%     80.71% # Class of committed instruction (Count)
system.cpu0.commit.committedInstType_0::SimdSha1Hash2            0      0.00%     80.71% # Class of committed instruction (Count)
system.cpu0.commit.committedInstType_0::SimdSha256Hash            0      0.00%     80.71% # Class of committed instruction (Count)
system.cpu0.commit.committedInstType_0::SimdSha256Hash2            0      0.00%     80.71% # Class of committed instruction (Count)
system.cpu0.commit.committedInstType_0::SimdShaSigma2            0      0.00%     80.71% # Class of committed instruction (Count)
system.cpu0.commit.committedInstType_0::SimdShaSigma3            0      0.00%     80.71% # Class of committed instruction (Count)
system.cpu0.commit.committedInstType_0::SimdPredAlu            0      0.00%     80.71% # Class of committed instruction (Count)
system.cpu0.commit.committedInstType_0::MemRead       518609     13.58%     94.30% # Class of committed instruction (Count)
system.cpu0.commit.committedInstType_0::MemWrite       182794      4.79%     99.08% # Class of committed instruction (Count)
system.cpu0.commit.committedInstType_0::FloatMemRead        21049      0.55%     99.63% # Class of committed instruction (Count)
system.cpu0.commit.committedInstType_0::FloatMemWrite        13950      0.37%    100.00% # Class of committed instruction (Count)
system.cpu0.commit.committedInstType_0::IprAccess            0      0.00%    100.00% # Class of committed instruction (Count)
system.cpu0.commit.committedInstType_0::InstPrefetch            0      0.00%    100.00% # Class of committed instruction (Count)
system.cpu0.commit.committedInstType_0::total      3818517                       # Class of committed instruction (Count)
system.cpu0.commit.commitEligibleSamples       219721                       # number cycles where commit BW limit reached (Cycle)
system.cpu0.decode.idleCycles                  486452                       # Number of cycles decode is idle (Cycle)
system.cpu0.decode.blockedCycles              8127632                       # Number of cycles decode is blocked (Cycle)
system.cpu0.decode.runCycles                   519477                       # Number of cycles decode is running (Cycle)
system.cpu0.decode.unblockCycles               200220                       # Number of cycles decode is unblocking (Cycle)
system.cpu0.decode.squashCycles                 19174                       # Number of cycles decode is squashing (Cycle)
system.cpu0.decode.branchResolved              253274                       # Number of times decode resolved a branch (Count)
system.cpu0.decode.branchMispred                 1201                       # Number of times decode detected a branch misprediction (Count)
system.cpu0.decode.decodedInsts               5045388                       # Number of instructions handled by decode (Count)
system.cpu0.decode.squashedInsts                 5647                       # Number of squashed instructions handled by decode (Count)
system.cpu0.fetch.icacheStallCycles            470513                       # Number of cycles fetch is stalled on an Icache miss (Cycle)
system.cpu0.fetch.insts                       3044832                       # Number of instructions fetch has processed (Count)
system.cpu0.fetch.branches                     514387                       # Number of branches that fetch encountered (Count)
system.cpu0.fetch.predictedBranches            285854                       # Number of branches that fetch has predicted taken (Count)
system.cpu0.fetch.cycles                      8608947                       # Number of cycles fetch has run and was not squashing or blocked (Cycle)
system.cpu0.fetch.squashCycles                  40706                       # Number of cycles fetch has spent squashing (Cycle)
system.cpu0.fetch.miscStallCycles               17476                       # Number of cycles fetch has spent waiting on interrupts, or bad addresses, or out of MSHRs (Cycle)
system.cpu0.fetch.pendingTrapStallCycles        17458                       # Number of stall cycles due to pending traps (Cycle)
system.cpu0.fetch.icacheWaitRetryStallCycles       218208                       # Number of stall cycles due to full MSHR (Cycle)
system.cpu0.fetch.cacheLines                   268787                       # Number of cache lines fetched (Count)
system.cpu0.fetch.icacheSquashes                 4697                       # Number of outstanding Icache misses that were squashed (Count)
system.cpu0.fetch.nisnDist::samples           9352955                       # Number of instructions fetched each cycle (Total) (Count)
system.cpu0.fetch.nisnDist::mean             0.571930                       # Number of instructions fetched each cycle (Total) (Count)
system.cpu0.fetch.nisnDist::stdev            1.908959                       # Number of instructions fetched each cycle (Total) (Count)
system.cpu0.fetch.nisnDist::underflows              0      0.00%      0.00% # Number of instructions fetched each cycle (Total) (Count)
system.cpu0.fetch.nisnDist::0                 8468881     90.55%     90.55% # Number of instructions fetched each cycle (Total) (Count)
system.cpu0.fetch.nisnDist::1                   42206      0.45%     91.00% # Number of instructions fetched each cycle (Total) (Count)
system.cpu0.fetch.nisnDist::2                   39299      0.42%     91.42% # Number of instructions fetched each cycle (Total) (Count)
system.cpu0.fetch.nisnDist::3                   67161      0.72%     92.14% # Number of instructions fetched each cycle (Total) (Count)
system.cpu0.fetch.nisnDist::4                  140101      1.50%     93.64% # Number of instructions fetched each cycle (Total) (Count)
system.cpu0.fetch.nisnDist::5                   61593      0.66%     94.29% # Number of instructions fetched each cycle (Total) (Count)
system.cpu0.fetch.nisnDist::6                   33349      0.36%     94.65% # Number of instructions fetched each cycle (Total) (Count)
system.cpu0.fetch.nisnDist::7                   44434      0.48%     95.13% # Number of instructions fetched each cycle (Total) (Count)
system.cpu0.fetch.nisnDist::8                  455931      4.87%    100.00% # Number of instructions fetched each cycle (Total) (Count)
system.cpu0.fetch.nisnDist::overflows               0      0.00%    100.00% # Number of instructions fetched each cycle (Total) (Count)
system.cpu0.fetch.nisnDist::min_value               0                       # Number of instructions fetched each cycle (Total) (Count)
system.cpu0.fetch.nisnDist::max_value               8                       # Number of instructions fetched each cycle (Total) (Count)
system.cpu0.fetch.nisnDist::total             9352955                       # Number of instructions fetched each cycle (Total) (Count)
system.cpu0.fetch.branchRate                 0.048649                       # Number of branch fetches per cycle (Ratio)
system.cpu0.fetch.rate                       0.287970                       # Number of inst fetches per cycle ((Count/Cycle))
system.cpu0.iew.idleCycles                          0                       # Number of cycles IEW is idle (Cycle)
system.cpu0.iew.squashCycles                    19174                       # Number of cycles IEW is squashing (Cycle)
system.cpu0.iew.blockCycles                   5365403                       # Number of cycles IEW is blocking (Cycle)
system.cpu0.iew.unblockCycles                  166160                       # Number of cycles IEW is unblocking (Cycle)
system.cpu0.iew.dispatchedInsts               4862247                       # Number of instructions dispatched to IQ (Count)
system.cpu0.iew.dispSquashedInsts                 955                       # Number of squashed instructions skipped by dispatch (Count)
system.cpu0.iew.dispLoadInsts                  676752                       # Number of dispatched load instructions (Count)
system.cpu0.iew.dispStoreInsts                 234365                       # Number of dispatched store instructions (Count)
system.cpu0.iew.dispNonSpecInsts                  898                       # Number of dispatched non-speculative instructions (Count)
system.cpu0.iew.iqFullEvents                     7324                       # Number of times the IQ has become full, causing a stall (Count)
system.cpu0.iew.lsqFullEvents                  153652                       # Number of times the LSQ has become full, causing a stall (Count)
system.cpu0.iew.memOrderViolationEvents           170                       # Number of memory order violations (Count)
system.cpu0.iew.predictedTakenIncorrect          7837                       # Number of branches that were predicted taken incorrectly (Count)
system.cpu0.iew.predictedNotTakenIncorrect        12815                       # Number of branches that were predicted not taken incorrectly (Count)
system.cpu0.iew.branchMispredicts               20652                       # Number of branch mispredicts detected at execute (Count)
system.cpu0.iew.instsToCommit                 4451792                       # Cumulative count of insts sent to commit (Count)
system.cpu0.iew.writebackCount                4439681                       # Cumulative count of insts written-back (Count)
system.cpu0.iew.producerInst                  3566719                       # Number of instructions producing a value (Count)
system.cpu0.iew.consumerInst                  6550393                       # Number of instructions consuming a value (Count)
system.cpu0.iew.wbRate                       0.419891                       # Insts written-back per cycle ((Count/Cycle))
system.cpu0.iew.wbFanout                     0.544505                       # Average fanout of values written-back ((Count/Count))
system.cpu0.interrupts.clk_domain.clock          8000                       # Clock period in ticks (Tick)
system.cpu0.lsq0.forwLoads                      71049                       # Number of loads that had data forwarded from stores (Count)
system.cpu0.lsq0.squashedLoads                 137094                       # Number of loads squashed (Count)
system.cpu0.lsq0.ignoredResponses                  93                       # Number of memory responses ignored because the instruction is squashed (Count)
system.cpu0.lsq0.memOrderViolation                170                       # Number of memory ordering violations (Count)
system.cpu0.lsq0.squashedStores                 37621                       # Number of stores squashed (Count)
system.cpu0.lsq0.rescheduledLoads                  14                       # Number of loads that were rescheduled (Count)
system.cpu0.lsq0.blockedByCache                  2148                       # Number of times an access to memory failed due to the cache being blocked (Count)
system.cpu0.lsq0.loadToUse::samples            539580                       # Distribution of cycle latency between the first time a load is issued and its completion (Unspecified)
system.cpu0.lsq0.loadToUse::mean            64.106110                       # Distribution of cycle latency between the first time a load is issued and its completion (Unspecified)
system.cpu0.lsq0.loadToUse::stdev          219.781577                       # Distribution of cycle latency between the first time a load is issued and its completion (Unspecified)
system.cpu0.lsq0.loadToUse::0-9                494237     91.60%     91.60% # Distribution of cycle latency between the first time a load is issued and its completion (Unspecified)
system.cpu0.lsq0.loadToUse::10-19                  71      0.01%     91.61% # Distribution of cycle latency between the first time a load is issued and its completion (Unspecified)
system.cpu0.lsq0.loadToUse::20-29                  60      0.01%     91.62% # Distribution of cycle latency between the first time a load is issued and its completion (Unspecified)
system.cpu0.lsq0.loadToUse::30-39                  73      0.01%     91.63% # Distribution of cycle latency between the first time a load is issued and its completion (Unspecified)
system.cpu0.lsq0.loadToUse::40-49                  74      0.01%     91.65% # Distribution of cycle latency between the first time a load is issued and its completion (Unspecified)
system.cpu0.lsq0.loadToUse::50-59                 103      0.02%     91.67% # Distribution of cycle latency between the first time a load is issued and its completion (Unspecified)
system.cpu0.lsq0.loadToUse::60-69                  74      0.01%     91.68% # Distribution of cycle latency between the first time a load is issued and its completion (Unspecified)
system.cpu0.lsq0.loadToUse::70-79                  78      0.01%     91.70% # Distribution of cycle latency between the first time a load is issued and its completion (Unspecified)
system.cpu0.lsq0.loadToUse::80-89                  70      0.01%     91.71% # Distribution of cycle latency between the first time a load is issued and its completion (Unspecified)
system.cpu0.lsq0.loadToUse::90-99                  63      0.01%     91.72% # Distribution of cycle latency between the first time a load is issued and its completion (Unspecified)
system.cpu0.lsq0.loadToUse::100-109                68      0.01%     91.73% # Distribution of cycle latency between the first time a load is issued and its completion (Unspecified)
system.cpu0.lsq0.loadToUse::110-119                71      0.01%     91.75% # Distribution of cycle latency between the first time a load is issued and its completion (Unspecified)
system.cpu0.lsq0.loadToUse::120-129                67      0.01%     91.76% # Distribution of cycle latency between the first time a load is issued and its completion (Unspecified)
system.cpu0.lsq0.loadToUse::130-139                57      0.01%     91.77% # Distribution of cycle latency between the first time a load is issued and its completion (Unspecified)
system.cpu0.lsq0.loadToUse::140-149                66      0.01%     91.78% # Distribution of cycle latency between the first time a load is issued and its completion (Unspecified)
system.cpu0.lsq0.loadToUse::150-159                50      0.01%     91.79% # Distribution of cycle latency between the first time a load is issued and its completion (Unspecified)
system.cpu0.lsq0.loadToUse::160-169                85      0.02%     91.81% # Distribution of cycle latency between the first time a load is issued and its completion (Unspecified)
system.cpu0.lsq0.loadToUse::170-179               126      0.02%     91.83% # Distribution of cycle latency between the first time a load is issued and its completion (Unspecified)
system.cpu0.lsq0.loadToUse::180-189               585      0.11%     91.94% # Distribution of cycle latency between the first time a load is issued and its completion (Unspecified)
system.cpu0.lsq0.loadToUse::190-199                50      0.01%     91.95% # Distribution of cycle latency between the first time a load is issued and its completion (Unspecified)
system.cpu0.lsq0.loadToUse::200-209                55      0.01%     91.96% # Distribution of cycle latency between the first time a load is issued and its completion (Unspecified)
system.cpu0.lsq0.loadToUse::210-219                62      0.01%     91.97% # Distribution of cycle latency between the first time a load is issued and its completion (Unspecified)
system.cpu0.lsq0.loadToUse::220-229                85      0.02%     91.98% # Distribution of cycle latency between the first time a load is issued and its completion (Unspecified)
system.cpu0.lsq0.loadToUse::230-239               110      0.02%     92.00% # Distribution of cycle latency between the first time a load is issued and its completion (Unspecified)
system.cpu0.lsq0.loadToUse::240-249               525      0.10%     92.10% # Distribution of cycle latency between the first time a load is issued and its completion (Unspecified)
system.cpu0.lsq0.loadToUse::250-259                25      0.00%     92.11% # Distribution of cycle latency between the first time a load is issued and its completion (Unspecified)
system.cpu0.lsq0.loadToUse::260-269                35      0.01%     92.11% # Distribution of cycle latency between the first time a load is issued and its completion (Unspecified)
system.cpu0.lsq0.loadToUse::270-279                46      0.01%     92.12% # Distribution of cycle latency between the first time a load is issued and its completion (Unspecified)
system.cpu0.lsq0.loadToUse::280-289                89      0.02%     92.14% # Distribution of cycle latency between the first time a load is issued and its completion (Unspecified)
system.cpu0.lsq0.loadToUse::290-299               145      0.03%     92.17% # Distribution of cycle latency between the first time a load is issued and its completion (Unspecified)
system.cpu0.lsq0.loadToUse::overflows           42275      7.83%    100.00% # Distribution of cycle latency between the first time a load is issued and its completion (Unspecified)
system.cpu0.lsq0.loadToUse::min_value               2                       # Distribution of cycle latency between the first time a load is issued and its completion (Unspecified)
system.cpu0.lsq0.loadToUse::max_value            2574                       # Distribution of cycle latency between the first time a load is issued and its completion (Unspecified)
system.cpu0.lsq0.loadToUse::total              539580                       # Distribution of cycle latency between the first time a load is issued and its completion (Unspecified)
system.cpu0.mmu.dtb.rdAccesses                 643349                       # TLB accesses on read requests (Count)
system.cpu0.mmu.dtb.wrAccesses                 222206                       # TLB accesses on write requests (Count)
system.cpu0.mmu.dtb.rdMisses                     3210                       # TLB misses on read requests (Count)
system.cpu0.mmu.dtb.wrMisses                      432                       # TLB misses on write requests (Count)
system.cpu0.mmu.dtb.walker.power_state.pwrStateResidencyTicks::UNDEFINED   5335206000                       # Cumulative time (in ticks) in various power states (Tick)
system.cpu0.mmu.itb.rdAccesses                      0                       # TLB accesses on read requests (Count)
system.cpu0.mmu.itb.wrAccesses                 271489                       # TLB accesses on write requests (Count)
system.cpu0.mmu.itb.rdMisses                        0                       # TLB misses on read requests (Count)
system.cpu0.mmu.itb.wrMisses                     3282                       # TLB misses on write requests (Count)
system.cpu0.mmu.itb.walker.power_state.pwrStateResidencyTicks::UNDEFINED   5335206000                       # Cumulative time (in ticks) in various power states (Tick)
system.cpu0.power_state.pwrStateResidencyTicks::ON   5335206000                       # Cumulative time (in ticks) in various power states (Tick)
system.cpu0.rename.squashCycles                 19174                       # Number of cycles rename is squashing (Cycle)
system.cpu0.rename.idleCycles                  562517                       # Number of cycles rename is idle (Cycle)
system.cpu0.rename.blockCycles                7106187                       # Number of cycles rename is blocking (Cycle)
system.cpu0.rename.serializeStallCycles         23140                       # count of cycles rename stalled for serializing inst (Cycle)
system.cpu0.rename.runCycles                   634379                       # Number of cycles rename is running (Cycle)
system.cpu0.rename.unblockCycles              1007558                       # Number of cycles rename is unblocking (Cycle)
system.cpu0.rename.renamedInsts               4965269                       # Number of instructions processed by rename (Count)
system.cpu0.rename.ROBFullEvents               110443                       # Number of times rename has blocked due to ROB full (Count)
system.cpu0.rename.IQFullEvents                252725                       # Number of times rename has blocked due to IQ full (Count)
system.cpu0.rename.LQFullEvents                160103                       # Number of times rename has blocked due to LQ full (Count)
system.cpu0.rename.SQFullEvents                541508                       # Number of times rename has blocked due to SQ full (Count)
system.cpu0.rename.fullRegistersEvents           3395                       # Number of times there has been no free registers (Count)
system.cpu0.rename.renamedOperands           10450023                       # Number of destination operands rename has renamed (Count)
system.cpu0.rename.lookups                   18778214                       # Number of register rename lookups that rename has made (Count)
system.cpu0.rename.intLookups                 6985062                       # Number of integer rename lookups (Count)
system.cpu0.rename.fpLookups                   184485                       # Number of floating rename lookups (Count)
system.cpu0.rename.committedMaps              8102213                       # Number of HB maps that are committed (Count)
system.cpu0.rename.undoneMaps                 2347810                       # Number of HB maps that are undone due to squashing (Count)
system.cpu0.rename.serializing                    873                       # count of serializing insts renamed (Count)
system.cpu0.rename.tempSerializing                859                       # count of temporary serializing insts renamed (Count)
system.cpu0.rename.skidInsts                   925574                       # count of insts added to the skid buffer (Count)
system.cpu0.rob.reads                        13828550                       # The number of ROB reads (Count)
system.cpu0.rob.writes                        9856905                       # The number of ROB writes (Count)
system.cpu0.thread_0.numInsts                 2206970                       # Number of Instructions committed (Count)
system.cpu0.thread_0.numOps                   3818517                       # Number of Ops committed (Count)
system.cpu0.thread_0.numMemRefs                     0                       # Number of Memory References (Count)
system.cpu0.workload.numSyscalls                   63                       # Number of system calls (Count)
system.cpu1.numCycles                        10212606                       # Number of cpu cycles simulated (Cycle)
system.cpu1.numWorkItemsStarted                     0                       # Number of work items this cpu started (Count)
system.cpu1.numWorkItemsCompleted                   0                       # Number of work items this cpu completed (Count)
system.cpu1.instsAdded                        4861353                       # Number of instructions added to the IQ (excludes non-spec) (Count)
system.cpu1.nonSpecInstsAdded                    1093                       # Number of non-speculative instructions added to the IQ (Count)
system.cpu1.instsIssued                       4499688                       # Number of instructions issued (Count)
system.cpu1.squashedInstsIssued                  2856                       # Number of squashed instructions issued (Count)
system.cpu1.squashedInstsExamined             1043929                       # Number of squashed instructions iterated over during squash; mainly for profiling (Count)
system.cpu1.squashedOperandsExamined          2256287                       # Number of squashed operands that are examined and possibly removed from graph (Count)
system.cpu1.squashedNonSpecRemoved                240                       # Number of squashed non-spec instructions that were removed (Count)
system.cpu1.numIssuedDist::samples            9052330                       # Number of insts issued each cycle (Count)
system.cpu1.numIssuedDist::mean              0.497075                       # Number of insts issued each cycle (Count)
system.cpu1.numIssuedDist::stdev             1.430049                       # Number of insts issued each cycle (Count)
system.cpu1.numIssuedDist::underflows               0      0.00%      0.00% # Number of insts issued each cycle (Count)
system.cpu1.numIssuedDist::0                  7792058     86.08%     86.08% # Number of insts issued each cycle (Count)
system.cpu1.numIssuedDist::1                   202130      2.23%     88.31% # Number of insts issued each cycle (Count)
system.cpu1.numIssuedDist::2                   231168      2.55%     90.86% # Number of insts issued each cycle (Count)
system.cpu1.numIssuedDist::3                   244701      2.70%     93.57% # Number of insts issued each cycle (Count)
system.cpu1.numIssuedDist::4                   196879      2.17%     95.74% # Number of insts issued each cycle (Count)
system.cpu1.numIssuedDist::5                   149489      1.65%     97.39% # Number of insts issued each cycle (Count)
system.cpu1.numIssuedDist::6                   125491      1.39%     98.78% # Number of insts issued each cycle (Count)
system.cpu1.numIssuedDist::7                    70100      0.77%     99.55% # Number of insts issued each cycle (Count)
system.cpu1.numIssuedDist::8                    40314      0.45%    100.00% # Number of insts issued each cycle (Count)
system.cpu1.numIssuedDist::overflows                0      0.00%    100.00% # Number of insts issued each cycle (Count)
system.cpu1.numIssuedDist::min_value                0                       # Number of insts issued each cycle (Count)
system.cpu1.numIssuedDist::max_value                8                       # Number of insts issued each cycle (Count)
system.cpu1.numIssuedDist::total              9052330                       # Number of insts issued each cycle (Count)
system.cpu1.statFuBusy::No_OpClass                  0      0.00%      0.00% # attempts to use FU when none available (Count)
system.cpu1.statFuBusy::IntAlu                  41745     62.83%     62.83% # attempts to use FU when none available (Count)
system.cpu1.statFuBusy::IntMult                     0      0.00%     62.83% # attempts to use FU when none available (Count)
system.cpu1.statFuBusy::IntDiv                      0      0.00%     62.83% # attempts to use FU when none available (Count)
system.cpu1.statFuBusy::FloatAdd                    0      0.00%     62.83% # attempts to use FU when none available (Count)
system.cpu1.statFuBusy::FloatCmp                    0      0.00%     62.83% # attempts to use FU when none available (Count)
system.cpu1.statFuBusy::FloatCvt                    0      0.00%     62.83% # attempts to use FU when none available (Count)
system.cpu1.statFuBusy::FloatMult                   0      0.00%     62.83% # attempts to use FU when none available (Count)
system.cpu1.statFuBusy::FloatMultAcc                0      0.00%     62.83% # attempts to use FU when none available (Count)
system.cpu1.statFuBusy::FloatDiv                    0      0.00%     62.83% # attempts to use FU when none available (Count)
system.cpu1.statFuBusy::FloatMisc                   0      0.00%     62.83% # attempts to use FU when none available (Count)
system.cpu1.statFuBusy::FloatSqrt                   0      0.00%     62.83% # attempts to use FU when none available (Count)
system.cpu1.statFuBusy::SimdAdd                     0      0.00%     62.83% # attempts to use FU when none available (Count)
system.cpu1.statFuBusy::SimdAddAcc                  0      0.00%     62.83% # attempts to use FU when none available (Count)
system.cpu1.statFuBusy::SimdAlu                   121      0.18%     63.01% # attempts to use FU when none available (Count)
system.cpu1.statFuBusy::SimdCmp                     0      0.00%     63.01% # attempts to use FU when none available (Count)
system.cpu1.statFuBusy::SimdCvt                   126      0.19%     63.20% # attempts to use FU when none available (Count)
system.cpu1.statFuBusy::SimdMisc                    0      0.00%     63.20% # attempts to use FU when none available (Count)
system.cpu1.statFuBusy::SimdMult                    0      0.00%     63.20% # attempts to use FU when none available (Count)
system.cpu1.statFuBusy::SimdMultAcc                 0      0.00%     63.20% # attempts to use FU when none available (Count)
system.cpu1.statFuBusy::SimdShift                 137      0.21%     63.40% # attempts to use FU when none available (Count)
system.cpu1.statFuBusy::SimdShiftAcc                0      0.00%     63.40% # attempts to use FU when none available (Count)
system.cpu1.statFuBusy::SimdDiv                     0      0.00%     63.40% # attempts to use FU when none available (Count)
system.cpu1.statFuBusy::SimdSqrt                    0      0.00%     63.40% # attempts to use FU when none available (Count)
system.cpu1.statFuBusy::SimdFloatAdd                0      0.00%     63.40% # attempts to use FU when none available (Count)
system.cpu1.statFuBusy::SimdFloatAlu                0      0.00%     63.40% # attempts to use FU when none available (Count)
system.cpu1.statFuBusy::SimdFloatCmp                0      0.00%     63.40% # attempts to use FU when none available (Count)
system.cpu1.statFuBusy::SimdFloatCvt                0      0.00%     63.40% # attempts to use FU when none available (Count)
system.cpu1.statFuBusy::SimdFloatDiv                0      0.00%     63.40% # attempts to use FU when none available (Count)
system.cpu1.statFuBusy::SimdFloatMisc               0      0.00%     63.40% # attempts to use FU when none available (Count)
system.cpu1.statFuBusy::SimdFloatMult               0      0.00%     63.40% # attempts to use FU when none available (Count)
system.cpu1.statFuBusy::SimdFloatMultAcc            0      0.00%     63.40% # attempts to use FU when none available (Count)
system.cpu1.statFuBusy::SimdFloatSqrt               0      0.00%     63.40% # attempts to use FU when none available (Count)
system.cpu1.statFuBusy::SimdReduceAdd               0      0.00%     63.40% # attempts to use FU when none available (Count)
system.cpu1.statFuBusy::SimdReduceAlu               0      0.00%     63.40% # attempts to use FU when none available (Count)
system.cpu1.statFuBusy::SimdReduceCmp               0      0.00%     63.40% # attempts to use FU when none available (Count)
system.cpu1.statFuBusy::SimdFloatReduceAdd            0      0.00%     63.40% # attempts to use FU when none available (Count)
system.cpu1.statFuBusy::SimdFloatReduceCmp            0      0.00%     63.40% # attempts to use FU when none available (Count)
system.cpu1.statFuBusy::SimdAes                     0      0.00%     63.40% # attempts to use FU when none available (Count)
system.cpu1.statFuBusy::SimdAesMix                  0      0.00%     63.40% # attempts to use FU when none available (Count)
system.cpu1.statFuBusy::SimdSha1Hash                0      0.00%     63.40% # attempts to use FU when none available (Count)
system.cpu1.statFuBusy::SimdSha1Hash2               0      0.00%     63.40% # attempts to use FU when none available (Count)
system.cpu1.statFuBusy::SimdSha256Hash              0      0.00%     63.40% # attempts to use FU when none available (Count)
system.cpu1.statFuBusy::SimdSha256Hash2             0      0.00%     63.40% # attempts to use FU when none available (Count)
system.cpu1.statFuBusy::SimdShaSigma2               0      0.00%     63.40% # attempts to use FU when none available (Count)
system.cpu1.statFuBusy::SimdShaSigma3               0      0.00%     63.40% # attempts to use FU when none available (Count)
system.cpu1.statFuBusy::SimdPredAlu                 0      0.00%     63.40% # attempts to use FU when none available (Count)
system.cpu1.statFuBusy::MemRead                 13855     20.85%     84.25% # attempts to use FU when none available (Count)
system.cpu1.statFuBusy::MemWrite                 8605     12.95%     97.21% # attempts to use FU when none available (Count)
system.cpu1.statFuBusy::FloatMemRead             1409      2.12%     99.33% # attempts to use FU when none available (Count)
system.cpu1.statFuBusy::FloatMemWrite             448      0.67%    100.00% # attempts to use FU when none available (Count)
system.cpu1.statFuBusy::IprAccess                   0      0.00%    100.00% # attempts to use FU when none available (Count)
system.cpu1.statFuBusy::InstPrefetch                0      0.00%    100.00% # attempts to use FU when none available (Count)
system.cpu1.statIssuedInstType_0::No_OpClass        18208      0.40%      0.40% # Number of instructions issued per FU type, per thread (Count)
system.cpu1.statIssuedInstType_0::IntAlu      3502146     77.83%     78.24% # Number of instructions issued per FU type, per thread (Count)
system.cpu1.statIssuedInstType_0::IntMult           39      0.00%     78.24% # Number of instructions issued per FU type, per thread (Count)
system.cpu1.statIssuedInstType_0::IntDiv        38206      0.85%     79.09% # Number of instructions issued per FU type, per thread (Count)
system.cpu1.statIssuedInstType_0::FloatAdd         4300      0.10%     79.18% # Number of instructions issued per FU type, per thread (Count)
system.cpu1.statIssuedInstType_0::FloatCmp            0      0.00%     79.18% # Number of instructions issued per FU type, per thread (Count)
system.cpu1.statIssuedInstType_0::FloatCvt         1700      0.04%     79.22% # Number of instructions issued per FU type, per thread (Count)
system.cpu1.statIssuedInstType_0::FloatMult            0      0.00%     79.22% # Number of instructions issued per FU type, per thread (Count)
system.cpu1.statIssuedInstType_0::FloatMultAcc            0      0.00%     79.22% # Number of instructions issued per FU type, per thread (Count)
system.cpu1.statIssuedInstType_0::FloatDiv            0      0.00%     79.22% # Number of instructions issued per FU type, per thread (Count)
system.cpu1.statIssuedInstType_0::FloatMisc            0      0.00%     79.22% # Number of instructions issued per FU type, per thread (Count)
system.cpu1.statIssuedInstType_0::FloatSqrt            0      0.00%     79.22% # Number of instructions issued per FU type, per thread (Count)
system.cpu1.statIssuedInstType_0::SimdAdd         8184      0.18%     79.40% # Number of instructions issued per FU type, per thread (Count)
system.cpu1.statIssuedInstType_0::SimdAddAcc            0      0.00%     79.40% # Number of instructions issued per FU type, per thread (Count)
system.cpu1.statIssuedInstType_0::SimdAlu        16703      0.37%     79.77% # Number of instructions issued per FU type, per thread (Count)
system.cpu1.statIssuedInstType_0::SimdCmp            0      0.00%     79.77% # Number of instructions issued per FU type, per thread (Count)
system.cpu1.statIssuedInstType_0::SimdCvt        18194      0.40%     80.18% # Number of instructions issued per FU type, per thread (Count)
system.cpu1.statIssuedInstType_0::SimdMisc         8671      0.19%     80.37% # Number of instructions issued per FU type, per thread (Count)
system.cpu1.statIssuedInstType_0::SimdMult            0      0.00%     80.37% # Number of instructions issued per FU type, per thread (Count)
system.cpu1.statIssuedInstType_0::SimdMultAcc            0      0.00%     80.37% # Number of instructions issued per FU type, per thread (Count)
system.cpu1.statIssuedInstType_0::SimdShift         2448      0.05%     80.42% # Number of instructions issued per FU type, per thread (Count)
system.cpu1.statIssuedInstType_0::SimdShiftAcc            0      0.00%     80.42% # Number of instructions issued per FU type, per thread (Count)
system.cpu1.statIssuedInstType_0::SimdDiv            0      0.00%     80.42% # Number of instructions issued per FU type, per thread (Count)
system.cpu1.statIssuedInstType_0::SimdSqrt            0      0.00%     80.42% # Number of instructions issued per FU type, per thread (Count)
system.cpu1.statIssuedInstType_0::SimdFloatAdd            0      0.00%     80.42% # Number of instructions issued per FU type, per thread (Count)
system.cpu1.statIssuedInstType_0::SimdFloatAlu            0      0.00%     80.42% # Number of instructions issued per FU type, per thread (Count)
system.cpu1.statIssuedInstType_0::SimdFloatCmp            0      0.00%     80.42% # Number of instructions issued per FU type, per thread (Count)
system.cpu1.statIssuedInstType_0::SimdFloatCvt            0      0.00%     80.42% # Number of instructions issued per FU type, per thread (Count)
system.cpu1.statIssuedInstType_0::SimdFloatDiv            0      0.00%     80.42% # Number of instructions issued per FU type, per thread (Count)
system.cpu1.statIssuedInstType_0::SimdFloatMisc            0      0.00%     80.42% # Number of instructions issued per FU type, per thread (Count)
system.cpu1.statIssuedInstType_0::SimdFloatMult            0      0.00%     80.42% # Number of instructions issued per FU type, per thread (Count)
system.cpu1.statIssuedInstType_0::SimdFloatMultAcc            0      0.00%     80.42% # Number of instructions issued per FU type, per thread (Count)
system.cpu1.statIssuedInstType_0::SimdFloatSqrt            0      0.00%     80.42% # Number of instructions issued per FU type, per thread (Count)
system.cpu1.statIssuedInstType_0::SimdReduceAdd            0      0.00%     80.42% # Number of instructions issued per FU type, per thread (Count)
system.cpu1.statIssuedInstType_0::SimdReduceAlu            0      0.00%     80.42% # Number of instructions issued per FU type, per thread (Count)
system.cpu1.statIssuedInstType_0::SimdReduceCmp            0      0.00%     80.42% # Number of instructions issued per FU type, per thread (Count)
system.cpu1.statIssuedInstType_0::SimdFloatReduceAdd            0      0.00%     80.42% # Number of instructions issued per FU type, per thread (Count)
system.cpu1.statIssuedInstType_0::SimdFloatReduceCmp            0      0.00%     80.42% # Number of instructions issued per FU type, per thread (Count)
system.cpu1.statIssuedInstType_0::SimdAes            0      0.00%     80.42% # Number of instructions issued per FU type, per thread (Count)
system.cpu1.statIssuedInstType_0::SimdAesMix            0      0.00%     80.42% # Number of instructions issued per FU type, per thread (Count)
system.cpu1.statIssuedInstType_0::SimdSha1Hash            0      0.00%     80.42% # Number of instructions issued per FU type, per thread (Count)
system.cpu1.statIssuedInstType_0::SimdSha1Hash2            0      0.00%     80.42% # Number of instructions issued per FU type, per thread (Count)
system.cpu1.statIssuedInstType_0::SimdSha256Hash            0      0.00%     80.42% # Number of instructions issued per FU type, per thread (Count)
system.cpu1.statIssuedInstType_0::SimdSha256Hash2            0      0.00%     80.42% # Number of instructions issued per FU type, per thread (Count)
system.cpu1.statIssuedInstType_0::SimdShaSigma2            0      0.00%     80.42% # Number of instructions issued per FU type, per thread (Count)
system.cpu1.statIssuedInstType_0::SimdShaSigma3            0      0.00%     80.42% # Number of instructions issued per FU type, per thread (Count)
system.cpu1.statIssuedInstType_0::SimdPredAlu            0      0.00%     80.42% # Number of instructions issued per FU type, per thread (Count)
system.cpu1.statIssuedInstType_0::MemRead       623453     13.86%     94.28% # Number of instructions issued per FU type, per thread (Count)
system.cpu1.statIssuedInstType_0::MemWrite       206304      4.58%     98.86% # Number of instructions issued per FU type, per thread (Count)
system.cpu1.statIssuedInstType_0::FloatMemRead        33154      0.74%     99.60% # Number of instructions issued per FU type, per thread (Count)
system.cpu1.statIssuedInstType_0::FloatMemWrite        17978      0.40%    100.00% # Number of instructions issued per FU type, per thread (Count)
system.cpu1.statIssuedInstType_0::IprAccess            0      0.00%    100.00% # Number of instructions issued per FU type, per thread (Count)
system.cpu1.statIssuedInstType_0::InstPrefetch            0      0.00%    100.00% # Number of instructions issued per FU type, per thread (Count)
system.cpu1.statIssuedInstType_0::total       4499688                       # Number of instructions issued per FU type, per thread (Count)
system.cpu1.issueRate                        0.440601                       # Inst issue rate ((Count/Cycle))
system.cpu1.fuBusy                              66446                       # FU busy when requested (Count)
system.cpu1.fuBusyRate                       0.014767                       # FU busy rate (busy events/executed inst) ((Count/Count))
system.cpu1.intInstQueueReads                17893590                       # Number of integer instruction queue reads (Count)
system.cpu1.intInstQueueWrites                5733968                       # Number of integer instruction queue writes (Count)
system.cpu1.intInstQueueWakeupAccesses        4331134                       # Number of integer instruction queue wakeup accesses (Count)
system.cpu1.fpInstQueueReads                   227418                       # Number of floating instruction queue reads (Count)
system.cpu1.fpInstQueueWrites                  172563                       # Number of floating instruction queue writes (Count)
system.cpu1.fpInstQueueWakeupAccesses          108742                       # Number of floating instruction queue wakeup accesses (Count)
system.cpu1.vecInstQueueReads                       0                       # Number of vector instruction queue reads (Count)
system.cpu1.vecInstQueueWrites                      0                       # Number of vector instruction queue writes (Count)
system.cpu1.vecInstQueueWakeupAccesses              0                       # Number of vector instruction queue wakeup accesses (Count)
system.cpu1.intAluAccesses                    4433246                       # Number of integer alu accesses (Count)
system.cpu1.fpAluAccesses                      114680                       # Number of floating point alu accesses (Count)
system.cpu1.vecAluAccesses                          0                       # Number of vector alu accesses (Count)
system.cpu1.numInsts                          4469370                       # Number of executed instructions (Count)
system.cpu1.numLoadInsts                       648910                       # Number of load instructions executed (Count)
system.cpu1.numSquashedInsts                    30318                       # Number of squashed instructions skipped in execute (Count)
system.cpu1.numSwp                                  0                       # Number of swp insts executed (Count)
system.cpu1.numNop                                  0                       # Number of nop insts executed (Count)
system.cpu1.numRefs                            871186                       # Number of memory reference insts executed (Count)
system.cpu1.numBranches                        398324                       # Number of branches executed (Count)
[...]
system.ruby.network.ext_out_link_utilization      4196822                       (Unspecified)
system.ruby.network.flit_network_latency |105363394000                       |208688706500                       | 28876770500                       (Unspecified)
system.ruby.network.flit_queueing_latency |  2142413500                       |  1944938500                       |   148075000                       (Unspecified)
system.ruby.network.flits_injected       |      995876     23.73%     23.73% |     2904797     69.21%     92.94% |      296151      7.06%    100.00% (Unspecified)
system.ruby.network.flits_injected::total      4196824                       (Unspecified)
system.ruby.network.flits_received       |      995875     23.73%     23.73% |     2904796     69.21%     92.94% |      296150      7.06%    100.00% (Unspecified)
system.ruby.network.flits_received::total      4196821                       (Unspecified)
system.ruby.network.int_link_utilization     12737302                       (Unspecified)
system.ruby.network.packet_network_latency | 78966239000                       | 68985341000                       | 28876770500                       (Unspecified)
system.ruby.network.packet_queueing_latency |  1757999500                       |   517046500                       |   148075000                       (Unspecified)
system.ruby.network.packets_injected     |      811400     42.28%     42.28% |      811397     42.28%     84.57% |      296151     15.43%    100.00% (Unspecified)
system.ruby.network.packets_injected::total      1918948                       (Unspecified)
system.ruby.network.packets_received     |      811399     42.28%     42.28% |      811396     42.28%     84.57% |      296150     15.43%    100.00% (Unspecified)
system.ruby.network.packets_received::total      1918945                       (Unspecified)
system.ruby.network.routers00.Var_1                 0                       (Unspecified)
system.ruby.network.routers00.Var_2                 0                       (Unspecified)
system.ruby.network.routers00.Var_3                 0                       (Unspecified)
system.ruby.network.routers00.all_counts            0                       (Unspecified)
system.ruby.network.routers00.buffer_reads       752132                       (Unspecified)
system.ruby.network.routers00.buffer_writes       752132                       (Unspecified)
system.ruby.network.routers00.crossbar_activity       752132                       (Unspecified)
system.ruby.network.routers00.detour_counts        53475                       (Unspecified)
system.ruby.network.routers00.regular_var            0                       (Unspecified)
system.ruby.network.routers00.risk_counts            0                       (Unspecified)
system.ruby.network.routers00.sw_input_arbiter_activity       757971                       (Unspecified)
system.ruby.network.routers00.sw_output_arbiter_activity       752132                       (Unspecified)
system.ruby.network.routers01.Var_1                 0                       (Unspecified)
system.ruby.network.routers01.Var_2                 0                       (Unspecified)
system.ruby.network.routers01.Var_3                 0                       (Unspecified)
system.ruby.network.routers01.all_counts            0                       (Unspecified)
system.ruby.network.routers01.buffer_reads      1081476                       (Unspecified)
system.ruby.network.routers01.buffer_writes      1081476                       (Unspecified)
system.ruby.network.routers01.crossbar_activity      1081476                       (Unspecified)
system.ruby.network.routers01.detour_counts        53606                       (Unspecified)
system.ruby.network.routers01.regular_var            0                       (Unspecified)
system.ruby.network.routers01.risk_counts            0                       (Unspecified)
system.ruby.network.routers01.sw_input_arbiter_activity      1094143                       (Unspecified)
system.ruby.network.routers01.sw_output_arbiter_activity      1081476                       (Unspecified)
system.ruby.network.routers02.Var_1                 0                       (Unspecified)
system.ruby.network.routers02.Var_2                 0                       (Unspecified)
system.ruby.network.routers02.Var_3                 0                       (Unspecified)
system.ruby.network.routers02.all_counts            0                       (Unspecified)
system.ruby.network.routers02.buffer_reads      1082695                       (Unspecified)
system.ruby.network.routers02.buffer_writes      1082695                       (Unspecified)
system.ruby.network.routers02.crossbar_activity      1082695                       (Unspecified)
system.ruby.network.routers02.detour_counts        53506                       (Unspecified)
system.ruby.network.routers02.regular_var            0                       (Unspecified)
system.ruby.network.routers02.risk_counts            0                       (Unspecified)
system.ruby.network.routers02.sw_input_arbiter_activity      1094875                       (Unspecified)
system.ruby.network.routers02.sw_output_arbiter_activity      1082695                       (Unspecified)
system.ruby.network.routers03.Var_1                 0                       (Unspecified)
system.ruby.network.routers03.Var_2                 0                       (Unspecified)
system.ruby.network.routers03.Var_3                 0                       (Unspecified)
system.ruby.network.routers03.all_counts            0                       (Unspecified)
system.ruby.network.routers03.buffer_reads       743916                       (Unspecified)
system.ruby.network.routers03.buffer_writes       743916                       (Unspecified)
system.ruby.network.routers03.crossbar_activity       743916                       (Unspecified)
system.ruby.network.routers03.detour_counts        53594                       (Unspecified)
system.ruby.network.routers03.regular_var            0                       (Unspecified)
system.ruby.network.routers03.risk_counts            0                       (Unspecified)
system.ruby.network.routers03.sw_input_arbiter_activity       749479                       (Unspecified)
system.ruby.network.routers03.sw_output_arbiter_activity       743916                       (Unspecified)
system.ruby.network.routers04.Var_1                 0                       (Unspecified)
system.ruby.network.routers04.Var_2                 0                       (Unspecified)
system.ruby.network.routers04.Var_3                 0                       (Unspecified)
system.ruby.network.routers04.all_counts            0                       (Unspecified)
system.ruby.network.routers04.buffer_reads      1048941                       (Unspecified)
system.ruby.network.routers04.buffer_writes      1048941                       (Unspecified)
system.ruby.network.routers04.crossbar_activity      1048941                       (Unspecified)
system.ruby.network.routers04.detour_counts        53601                       (Unspecified)
system.ruby.network.routers04.regular_var            0                       (Unspecified)
system.ruby.network.routers04.risk_counts            0                       (Unspecified)
system.ruby.network.routers04.sw_input_arbiter_activity      1060154                       (Unspecified)
system.ruby.network.routers04.sw_output_arbiter_activity      1048941                       (Unspecified)
system.ruby.network.routers05.Var_1                 0                       (Unspecified)
system.ruby.network.routers05.Var_2                 0                       (Unspecified)
system.ruby.network.routers05.Var_3                 0                       (Unspecified)
system.ruby.network.routers05.all_counts            0                       (Unspecified)
system.ruby.network.routers05.buffer_reads      1373887                       (Unspecified)
system.ruby.network.routers05.buffer_writes      1373887                       (Unspecified)
system.ruby.network.routers05.crossbar_activity      1373887                       (Unspecified)
system.ruby.network.routers05.detour_counts        53658                       (Unspecified)
system.ruby.network.routers05.regular_var            0                       (Unspecified)
system.ruby.network.routers05.risk_counts            0                       (Unspecified)
system.ruby.network.routers05.sw_input_arbiter_activity      1391852                       (Unspecified)
system.ruby.network.routers05.sw_output_arbiter_activity      1373887                       (Unspecified)
system.ruby.network.routers06.Var_1                 0                       (Unspecified)
system.ruby.network.routers06.Var_2                 0                       (Unspecified)
system.ruby.network.routers06.Var_3                 0                       (Unspecified)
system.ruby.network.routers06.all_counts            0                       (Unspecified)
system.ruby.network.routers06.buffer_reads      1374669                       (Unspecified)
system.ruby.network.routers06.buffer_writes      1374669                       (Unspecified)
system.ruby.network.routers06.crossbar_activity      1374669                       (Unspecified)
system.ruby.network.routers06.detour_counts        53624                       (Unspecified)
system.ruby.network.routers06.regular_var            0                       (Unspecified)
system.ruby.network.routers06.risk_counts            0                       (Unspecified)
system.ruby.network.routers06.sw_input_arbiter_activity      1392980                       (Unspecified)
system.ruby.network.routers06.sw_output_arbiter_activity      1374669                       (Unspecified)
system.ruby.network.routers07.Var_1                 0                       (Unspecified)
system.ruby.network.routers07.Var_2                 0                       (Unspecified)
system.ruby.network.routers07.Var_3                 0                       (Unspecified)
system.ruby.network.routers07.all_counts            0                       (Unspecified)
system.ruby.network.routers07.buffer_reads      1042155                       (Unspecified)
system.ruby.network.routers07.buffer_writes      1042155                       (Unspecified)
system.ruby.network.routers07.crossbar_activity      1042155                       (Unspecified)
system.ruby.network.routers07.detour_counts        53643                       (Unspecified)
system.ruby.network.routers07.regular_var            0                       (Unspecified)
system.ruby.network.routers07.risk_counts            0                       (Unspecified)
system.ruby.network.routers07.sw_input_arbiter_activity      1054038                       (Unspecified)
system.ruby.network.routers07.sw_output_arbiter_activity      1042155                       (Unspecified)
system.ruby.network.routers08.Var_1                 0                       (Unspecified)
system.ruby.network.routers08.Var_2                 0                       (Unspecified)
system.ruby.network.routers08.Var_3                 0                       (Unspecified)
system.ruby.network.routers08.all_counts            0                       (Unspecified)
system.ruby.network.routers08.buffer_reads      1044344                       (Unspecified)
system.ruby.network.routers08.buffer_writes      1044344                       (Unspecified)
system.ruby.network.routers08.crossbar_activity      1044344                       (Unspecified)
system.ruby.network.routers08.detour_counts        53614                       (Unspecified)
system.ruby.network.routers08.regular_var            0                       (Unspecified)
system.ruby.network.routers08.risk_counts            0                       (Unspecified)
system.ruby.network.routers08.sw_input_arbiter_activity      1055879                       (Unspecified)
system.ruby.network.routers08.sw_output_arbiter_activity      1044344                       (Unspecified)
system.ruby.network.routers09.Var_1                 0                       (Unspecified)
system.ruby.network.routers09.Var_2                 0                       (Unspecified)
system.ruby.network.routers09.Var_3                 0                       (Unspecified)
system.ruby.network.routers09.all_counts            0                       (Unspecified)
system.ruby.network.routers09.buffer_reads      1376439                       (Unspecified)
system.ruby.network.routers09.buffer_writes      1376439                       (Unspecified)
system.ruby.network.routers09.crossbar_activity      1376439                       (Unspecified)
system.ruby.network.routers09.detour_counts        53483                       (Unspecified)
system.ruby.network.routers09.regular_var            0                       (Unspecified)
system.ruby.network.routers09.risk_counts            0                       (Unspecified)
system.ruby.network.routers09.sw_input_arbiter_activity      1394741                       (Unspecified)
system.ruby.network.routers09.sw_output_arbiter_activity      1376439                       (Unspecified)
system.ruby.network.routers10.Var_1                 0                       (Unspecified)
system.ruby.network.routers10.Var_2                 0                       (Unspecified)
system.ruby.network.routers10.Var_3                 0                       (Unspecified)
system.ruby.network.routers10.all_counts            0                       (Unspecified)
system.ruby.network.routers10.buffer_reads      1373250                       (Unspecified)
system.ruby.network.routers10.buffer_writes      1373250                       (Unspecified)
system.ruby.network.routers10.crossbar_activity      1373250                       (Unspecified)
system.ruby.network.routers10.detour_counts        53574                       (Unspecified)
system.ruby.network.routers10.regular_var            0                       (Unspecified)
system.ruby.network.routers10.risk_counts            0                       (Unspecified)
system.ruby.network.routers10.sw_input_arbiter_activity      1391160                       (Unspecified)
system.ruby.network.routers10.sw_output_arbiter_activity      1373250                       (Unspecified)
system.ruby.network.routers11.Var_1                 0                       (Unspecified)
system.ruby.network.routers11.Var_2                 0                       (Unspecified)
system.ruby.network.routers11.Var_3                 0                       (Unspecified)
system.ruby.network.routers11.all_counts            0                       (Unspecified)
system.ruby.network.routers11.buffer_reads      1034397                       (Unspecified)
system.ruby.network.routers11.buffer_writes      1034397                       (Unspecified)
system.ruby.network.routers11.crossbar_activity      1034397                       (Unspecified)
system.ruby.network.routers11.detour_counts        53749                       (Unspecified)
system.ruby.network.routers11.regular_var            0                       (Unspecified)
system.ruby.network.routers11.risk_counts            0                       (Unspecified)
system.ruby.network.routers11.sw_input_arbiter_activity      1045607                       (Unspecified)
system.ruby.network.routers11.sw_output_arbiter_activity      1034397                       (Unspecified)
system.ruby.network.routers12.Var_1                 0                       (Unspecified)
system.ruby.network.routers12.Var_2                 0                       (Unspecified)
system.ruby.network.routers12.Var_3                 0                       (Unspecified)
system.ruby.network.routers12.all_counts            0                       (Unspecified)
system.ruby.network.routers12.buffer_reads       738178                       (Unspecified)
system.ruby.network.routers12.buffer_writes       738178                       (Unspecified)
system.ruby.network.routers12.crossbar_activity       738178                       (Unspecified)
system.ruby.network.routers12.detour_counts        53668                       (Unspecified)
system.ruby.network.routers12.regular_var            0                       (Unspecified)
system.ruby.network.routers12.risk_counts            0                       (Unspecified)
system.ruby.network.routers12.sw_input_arbiter_activity       743684                       (Unspecified)
system.ruby.network.routers12.sw_output_arbiter_activity       738178                       (Unspecified)
system.ruby.network.routers13.Var_1                 0                       (Unspecified)
system.ruby.network.routers13.Var_2                 0                       (Unspecified)
system.ruby.network.routers13.Var_3                 0                       (Unspecified)
system.ruby.network.routers13.all_counts            0                       (Unspecified)
system.ruby.network.routers13.buffer_reads      1068608                       (Unspecified)
system.ruby.network.routers13.buffer_writes      1068608                       (Unspecified)
system.ruby.network.routers13.crossbar_activity      1068608                       (Unspecified)
system.ruby.network.routers13.detour_counts        53582                       (Unspecified)
system.ruby.network.routers13.regular_var            0                       (Unspecified)
system.ruby.network.routers13.risk_counts            0                       (Unspecified)
system.ruby.network.routers13.sw_input_arbiter_activity      1080907                       (Unspecified)
system.ruby.network.routers13.sw_output_arbiter_activity      1068608                       (Unspecified)
system.ruby.network.routers14.Var_1                 0                       (Unspecified)
system.ruby.network.routers14.Var_2                 0                       (Unspecified)
system.ruby.network.routers14.Var_3                 0                       (Unspecified)
system.ruby.network.routers14.all_counts            0                       (Unspecified)
system.ruby.network.routers14.buffer_reads      1064064                       (Unspecified)
system.ruby.network.routers14.buffer_writes      1064064                       (Unspecified)
system.ruby.network.routers14.crossbar_activity      1064064                       (Unspecified)
system.ruby.network.routers14.detour_counts        53707                       (Unspecified)
system.ruby.network.routers14.regular_var            0                       (Unspecified)
system.ruby.network.routers14.risk_counts            0                       (Unspecified)
system.ruby.network.routers14.sw_input_arbiter_activity      1075966                       (Unspecified)
system.ruby.network.routers14.sw_output_arbiter_activity      1064064                       (Unspecified)
system.ruby.network.routers15.Var_1                 0                       (Unspecified)
system.ruby.network.routers15.Var_2                 0                       (Unspecified)
system.ruby.network.routers15.Var_3                 0                       (Unspecified)
system.ruby.network.routers15.all_counts            0                       (Unspecified)
system.ruby.network.routers15.buffer_reads       734973                       (Unspecified)
system.ruby.network.routers15.buffer_writes       734973                       (Unspecified)
system.ruby.network.routers15.crossbar_activity       734973                       (Unspecified)
system.ruby.network.routers15.detour_counts        53733                       (Unspecified)
system.ruby.network.routers15.regular_var            0                       (Unspecified)
system.ruby.network.routers15.risk_counts            0                       (Unspecified)
system.ruby.network.routers15.sw_input_arbiter_activity       740333                       (Unspecified)
system.ruby.network.routers15.sw_output_arbiter_activity       734973                       (Unspecified)

---------- End Simulation Statistics   ----------
