
---------- Begin Simulation Statistics ----------
simSeconds                                   0.005330                       # Number of seconds simulated (Second)
simTicks                                   5329966500                       # Number of ticks simulated (Tick)
finalTick                                  5329966500                       # Number of ticks from beginning of simulation (restored from checkpoints and never reset) (Tick)
simFreq                                  1000000000000                       # The number of ticks per simulated second ((Tick/Second))
hostSeconds                                    727.13                       # Real time elapsed on the host (Second)
hostTickRate                                  7330112                       # The number of ticks simulated per host second (ticks/s) ((Tick/Second))
hostMemory                                   11460196                       # Number of bytes of host memory used (Byte)
simInsts                                     35326144                       # Number of instructions simulated (Count)
simOps                                       60919376                       # Number of ops (including micro ops) simulated (Count)
hostInstRate                                    48583                       # Simulator instruction rate (inst/s) ((Count/Second))
hostOpRate                                      83780                       # Simulator op (including micro ops) rate (op/s) ((Count/Second))
system.clk_domain.clock                          1000                       # Clock period in ticks (Tick)
system.cpu0.numCycles                        10553563                       # Number of cpu cycles simulated (Cycle)
system.cpu0.numWorkItemsStarted                     0                       # Number of work items this cpu started (Count)
system.cpu0.numWorkItemsCompleted                   0                       # Number of work items this cpu completed (Count)
system.cpu0.instsAdded                        4854529                       # Number of instructions added to the IQ (excludes non-spec) (Count)
system.cpu0.nonSpecInstsAdded                    1099                       # Number of non-speculative instructions added to the IQ (Count)
system.cpu0.instsIssued                       4492492                       # Number of instructions issued (Count)
system.cpu0.squashedInstsIssued                  3089                       # Number of squashed instructions issued (Count)
system.cpu0.squashedInstsExamined             1048167                       # Number of squashed instructions iterated over during squash; mainly for profiling (Count)
system.cpu0.squashedOperandsExamined          2257798                       # Number of squashed operands that are examined and possibly removed from graph (Count)
system.cpu0.squashedNonSpecRemoved                246                       # Number of squashed non-spec instructions that were removed (Count)
system.cpu0.numIssuedDist::samples            9344157                       # Number of insts issued each cycle (Count)
system.cpu0.numIssuedDist::mean              0.480781                       # Number of insts issued each cycle (Count)
system.cpu0.numIssuedDist::stdev             1.406823                       # Number of insts issued each cycle (Count)
system.cpu0.numIssuedDist::underflows               0      0.00%      0.00% # Number of insts issued each cycle (Count)
system.cpu0.numIssuedDist::0                  8082807     86.50%     86.50% # Number of insts issued each cycle (Count)
system.cpu0.numIssuedDist::1                   200790      2.15%     88.65% # Number of insts issued each cycle (Count)
system.cpu0.numIssuedDist::2                   235286      2.52%     91.17% # Number of insts issued each cycle (Count)
system.cpu0.numIssuedDist::3                   245730      2.63%     93.80% # Number of insts issued each cycle (Count)
system.cpu0.numIssuedDist::4                   195370      2.09%     95.89% # Number of insts issued each cycle (Count)
system.cpu0.numIssuedDist::5                   149575      1.60%     97.49% # Number of insts issued each cycle (Count)
system.cpu0.numIssuedDist::6                   126687      1.36%     98.85% # Number of insts issued each cycle (Count)
system.cpu0.numIssuedDist::7                    68833      0.74%     99.58% # Number of insts issued each cycle (Count)
system.cpu0.numIssuedDist::8                    39079      0.42%    100.00% # Number of insts issued each cycle (Count)
system.cpu0.numIssuedDist::overflows                0      0.00%    100.00% # Number of insts issued each cycle (Count)
system.cpu0.numIssuedDist::min_value                0                       # Number of insts issued each cycle (Count)
system.cpu0.numIssuedDist::max_value                8                       # Number of insts issued each cycle (Count)
system.cpu0.numIssuedDist::total              9344157                       # Number of insts issued each cycle (Count)
system.cpu0.statFuBusy::No_OpClass                  0      0.00%      0.00% # attempts to use FU when none available (Count)
system.cpu0.statFuBusy::IntAlu                  42719     66.06%     66.06% # attempts to use FU when none available (Count)
system.cpu0.statFuBusy::IntMult                     0      0.00%     66.06% # attempts to use FU when none available (Count)
system.cpu0.statFuBusy::IntDiv                      0      0.00%     66.06% # attempts to use FU when none available (Count)
system.cpu0.statFuBusy::FloatAdd                    0      0.00%     66.06% # attempts to use FU when none available (Count)
system.cpu0.statFuBusy::FloatCmp                    0      0.00%     66.06% # attempts to use FU when none available (Count)
system.cpu0.statFuBusy::FloatCvt                    0      0.00%     66.06% # attempts to use FU when none available (Count)
system.cpu0.statFuBusy::FloatMult                   0      0.00%     66.06% # attempts to use FU when none available (Count)
system.cpu0.statFuBusy::FloatMultAcc                0      0.00%     66.06% # attempts to use FU when none available (Count)
system.cpu0.statFuBusy::FloatDiv                    0      0.00%     66.06% # attempts to use FU when none available (Count)
system.cpu0.statFuBusy::FloatMisc                   0      0.00%     66.06% # attempts to use FU when none available (Count)
system.cpu0.statFuBusy::FloatSqrt                   0      0.00%     66.06% # attempts to use FU when none available (Count)
system.cpu0.statFuBusy::SimdAdd                     0      0.00%     66.06% # attempts to use FU when none available (Count)
system.cpu0.statFuBusy::SimdAddAcc                  0      0.00%     66.06% # attempts to use FU when none available (Count)
system.cpu0.statFuBusy::SimdAlu                   123      0.19%     66.25% # attempts to use FU when none available (Count)
system.cpu0.statFuBusy::SimdCmp                     0      0.00%     66.25% # attempts to use FU when none available (Count)
system.cpu0.statFuBusy::SimdCvt                   115      0.18%     66.42% # attempts to use FU when none available (Count)
system.cpu0.statFuBusy::SimdMisc                    1      0.00%     66.43% # attempts to use FU when none available (Count)
system.cpu0.statFuBusy::SimdMult                    0      0.00%     66.43% # attempts to use FU when none available (Count)
system.cpu0.statFuBusy::SimdMultAcc                 0      0.00%     66.43% # attempts to use FU when none available (Count)
system.cpu0.statFuBusy::SimdShift                 135      0.21%     66.64% # attempts to use FU when none available (Count)
system.cpu0.statFuBusy::SimdShiftAcc                0      0.00%     66.64% # attempts to use FU when none available (Count)
system.cpu0.statFuBusy::SimdDiv                     0      0.00%     66.64% # attempts to use FU when none available (Count)
system.cpu0.statFuBusy::SimdSqrt                    0      0.00%     66.64% # attempts to use FU when none available (Count)
system.cpu0.statFuBusy::SimdFloatAdd                0      0.00%     66.64% # attempts to use FU when none available (Count)
system.cpu0.statFuBusy::SimdFloatAlu                0      0.00%     66.64% # attempts to use FU when none available (Count)
system.cpu0.statFuBusy::SimdFloatCmp                0      0.00%     66.64% # attempts to use FU when none available (Count)
system.cpu0.statFuBusy::SimdFloatCvt                0      0.00%     66.64% # attempts to use FU when none available (Count)
system.cpu0.statFuBusy::SimdFloatDiv                0      0.00%     66.64% # attempts to use FU when none available (Count)
system.cpu0.statFuBusy::SimdFloatMisc               0      0.00%     66.64% # attempts to use FU when none available (Count)
system.cpu0.statFuBusy::SimdFloatMult               0      0.00%     66.64% # attempts to use FU when none available (Count)
system.cpu0.statFuBusy::SimdFloatMultAcc            0      0.00%     66.64% # attempts to use FU when none available (Count)
system.cpu0.statFuBusy::SimdFloatSqrt               0      0.00%     66.64% # attempts to use FU when none available (Count)
system.cpu0.statFuBusy::SimdReduceAdd               0      0.00%     66.64% # attempts to use FU when none available (Count)
system.cpu0.statFuBusy::SimdReduceAlu               0      0.00%     66.64% # attempts to use FU when none available (Count)
system.cpu0.statFuBusy::SimdReduceCmp               0      0.00%     66.64% # attempts to use FU when none available (Count)
system.cpu0.statFuBusy::SimdFloatReduceAdd            0      0.00%     66.64% # attempts to use FU when none available (Count)
system.cpu0.statFuBusy::SimdFloatReduceCmp            0      0.00%     66.64% # attempts to use FU when none available (Count)
system.cpu0.statFuBusy::SimdAes                     0      0.00%     66.64% # attempts to use FU when none available (Count)
system.cpu0.statFuBusy::SimdAesMix                  0      0.00%     66.64% # attempts to use FU when none available (Count)
system.cpu0.statFuBusy::SimdSha1Hash                0      0.00%     66.64% # attempts to use FU when none available (Count)
system.cpu0.statFuBusy::SimdSha1Hash2               0      0.00%     66.64% # attempts to use FU when none available (Count)
system.cpu0.statFuBusy::SimdSha256Hash              0      0.00%     66.64% # attempts to use FU when none available (Count)
system.cpu0.statFuBusy::SimdSha256Hash2             0      0.00%     66.64% # attempts to use FU when none available (Count)
system.cpu0.statFuBusy::SimdShaSigma2               0      0.00%     66.64% # attempts to use FU when none available (Count)
system.cpu0.statFuBusy::SimdShaSigma3               0      0.00%     66.64% # attempts to use FU when none available (Count)
system.cpu0.statFuBusy::SimdPredAlu                 0      0.00%     66.64% # attempts to use FU when none available (Count)
system.cpu0.statFuBusy::MemRead                 12018     18.58%     85.22% # attempts to use FU when none available (Count)
system.cpu0.statFuBusy::MemWrite                 7713     11.93%     97.15% # attempts to use FU when none available (Count)
system.cpu0.statFuBusy::FloatMemRead             1405      2.17%     99.32% # attempts to use FU when none available (Count)
system.cpu0.statFuBusy::FloatMemWrite             441      0.68%    100.00% # attempts to use FU when none available (Count)
system.cpu0.statFuBusy::IprAccess                   0      0.00%    100.00% # attempts to use FU when none available (Count)
system.cpu0.statFuBusy::InstPrefetch                0      0.00%    100.00% # attempts to use FU when none available (Count)
system.cpu0.statIssuedInstType_0::No_OpClass        18457      0.41%      0.41% # Number of instructions issued per FU type, per thread (Count)
system.cpu0.statIssuedInstType_0::IntAlu      3522510     78.41%     78.82% # Number of instructions issued per FU type, per thread (Count)
system.cpu0.statIssuedInstType_0::IntMult           34      0.00%     78.82% # Number of instructions issued per FU type, per thread (Count)
system.cpu0.statIssuedInstType_0::IntDiv        38179      0.85%     79.67% # Number of instructions issued per FU type, per thread (Count)
system.cpu0.statIssuedInstType_0::FloatAdd         4287      0.10%     79.77% # Number of instructions issued per FU type, per thread (Count)
system.cpu0.statIssuedInstType_0::FloatCmp            0      0.00%     79.77% # Number of instructions issued per FU type, per thread (Count)
system.cpu0.statIssuedInstType_0::FloatCvt         1704      0.04%     79.80% # Number of instructions issued per FU type, per thread (Count)
system.cpu0.statIssuedInstType_0::FloatMult            0      0.00%     79.80% # Number of instructions issued per FU type, per thread (Count)
system.cpu0.statIssuedInstType_0::FloatMultAcc            0      0.00%     79.80% # Number of instructions issued per FU type, per thread (Count)
system.cpu0.statIssuedInstType_0::FloatDiv            0      0.00%     79.80% # Number of instructions issued per FU type, per thread (Count)
system.cpu0.statIssuedInstType_0::FloatMisc            0      0.00%     79.80% # Number of instructions issued per FU type, per thread (Count)
system.cpu0.statIssuedInstType_0::FloatSqrt            0      0.00%     79.80% # Number of instructions issued per FU type, per thread (Count)
system.cpu0.statIssuedInstType_0::SimdAdd         8212      0.18%     79.99% # Number of instructions issued per FU type, per thread (Count)
system.cpu0.statIssuedInstType_0::SimdAddAcc            0      0.00%     79.99% # Number of instructions issued per FU type, per thread (Count)
system.cpu0.statIssuedInstType_0::SimdAlu        16717      0.37%     80.36% # Number of instructions issued per FU type, per thread (Count)
system.cpu0.statIssuedInstType_0::SimdCmp            0      0.00%     80.36% # Number of instructions issued per FU type, per thread (Count)
system.cpu0.statIssuedInstType_0::SimdCvt        18314      0.41%     80.77% # Number of instructions issued per FU type, per thread (Count)
system.cpu0.statIssuedInstType_0::SimdMisc         8709      0.19%     80.96% # Number of instructions issued per FU type, per thread (Count)
system.cpu0.statIssuedInstType_0::SimdMult            0      0.00%     80.96% # Number of instructions issued per FU type, per thread (Count)
system.cpu0.statIssuedInstType_0::SimdMultAcc            0      0.00%     80.96% # Number of instructions issued per FU type, per thread (Count)
system.cpu0.statIssuedInstType_0::SimdShift         2415      0.05%     81.01% # Number of instructions issued per FU type, per thread (Count)
system.cpu0.statIssuedInstType_0::SimdShiftAcc            0      0.00%     81.01% # Number of instructions issued per FU type, per thread (Count)
system.cpu0.statIssuedInstType_0::SimdDiv            0      0.00%     81.01% # Number of instructions issued per FU type, per thread (Count)
system.cpu0.statIssuedInstType_0::SimdSqrt            0      0.00%     81.01% # Number of instructions issued per FU type, per thread (Count)
system.cpu0.statIssuedInstType_0::SimdFloatAdd            0      0.00%     81.01% # Number of instructions issued per FU type, per thread (Count)
system.cpu0.statIssuedInstType_0::SimdFloatAlu            0      0.00%     81.01% # Number of instructions issued per FU type, per thread (Count)
system.cpu0.statIssuedInstType_0::SimdFloatCmp            0      0.00%     81.01% # Number of instructions issued per FU type, per thread (Count)
system.cpu0.statIssuedInstType_0::SimdFloatCvt            0      0.00%     81.01% # Number of instructions issued per FU type, per thread (Count)
system.cpu0.statIssuedInstType_0::SimdFloatDiv            0      0.00%     81.01% # Number of instructions issued per FU type, per thread (Count)
system.cpu0.statIssuedInstType_0::SimdFloatMisc            0      0.00%     81.01% # Number of instructions issued per FU type, per thread (Count)
system.cpu0.statIssuedInstType_0::SimdFloatMult            0      0.00%     81.01% # Number of instructions issued per FU type, per thread (Count)
system.cpu0.statIssuedInstType_0::SimdFloatMultAcc            0      0.00%     81.01% # Number of instructions issued per FU type, per thread (Count)
system.cpu0.statIssuedInstType_0::SimdFloatSqrt            0      0.00%     81.01% # Number of instructions issued per FU type, per thread (Count)
system.cpu0.statIssuedInstType_0::SimdReduceAdd            0      0.00%     81.01% # Number of instructions issued per FU type, per thread (Count)
system.cpu0.statIssuedInstType_0::SimdReduceAlu            0      0.00%     81.01% # Number of instructions issued per FU type, per thread (Count)
system.cpu0.statIssuedInstType_0::SimdReduceCmp            0      0.00%     81.01% # Number of instructions issued per FU type, per thread (Count)
system.cpu0.statIssuedInstType_0::SimdFloatReduceAdd            0      0.00%     81.01% # Number of instructions issued per FU type, per thread (Count)
system.cpu0.statIssuedInstType_0::SimdFloatReduceCmp            0      0.00%     81.01% # Number of instructions issued per FU type, per thread (Count)
system.cpu0.statIssuedInstType_0::SimdAes            0      0.00%     81.01% # Number of instructions issued per FU type, per thread (Count)
system.cpu0.statIssuedInstType_0::SimdAesMix            0      0.00%     81.01% # Number of instructions issued per FU type, per thread (Count)
system.cpu0.statIssuedInstType_0::SimdSha1Hash            0      0.00%     81.01% # Number of instructions issued per FU type, per thread (Count)
system.cpu0.statIssuedInstType_0::SimdSha1Hash2            0      0.00%     81.01% # Number of instructions issued per FU type, per thread (Count)
system.cpu0.statIssuedInstType_0::SimdSha256Hash            0      0.00%     81.01% # Number of instructions issued per FU type, per thread (Count)
system.cpu0.statIssuedInstType_0::SimdSha256Hash2            0      0.00%     81.01% # Number of instructions issued per FU type, per thread (Count)
system.cpu0.statIssuedInstType_0::SimdShaSigma2            0      0.00%     81.01% # Number of instructions issued per FU type, per thread (Count)
system.cpu0.statIssuedInstType_0::SimdShaSigma3            0      0.00%     81.01% # Number of instructions issued per FU type, per thread (Count)
system.cpu0.statIssuedInstType_0::SimdPredAlu            0      0.00%     81.01% # Number of instructions issued per FU type, per thread (Count)
system.cpu0.statIssuedInstType_0::MemRead       610701     13.59%     94.61% # Number of instructions issued per FU type, per thread (Count)
system.cpu0.statIssuedInstType_0::MemWrite       191134      4.25%     98.86% # Number of instructions issued per FU type, per thread (Count)
system.cpu0.statIssuedInstType_0::FloatMemRead        33209      0.74%     99.60% # Number of instructions issued per FU type, per thread (Count)
system.cpu0.statIssuedInstType_0::FloatMemWrite        17910      0.40%    100.00% # Number of instructions issued per FU type, per thread (Count)
system.cpu0.statIssuedInstType_0::IprAccess            0      0.00%    100.00% # Number of instructions issued per FU type, per thread (Count)
system.cpu0.statIssuedInstType_0::InstPrefetch            0      0.00%    100.00% # Number of instructions issued per FU type, per thread (Count)
system.cpu0.statIssuedInstType_0::total       4492492                       # Number of instructions issued per FU type, per thread (Count)
system.cpu0.issueRate                        0.425685                       # Inst issue rate ((Count/Cycle))
system.cpu0.fuBusy                              64670                       # FU busy when requested (Count)
system.cpu0.fuBusyRate                       0.014395                       # FU busy rate (busy events/executed inst) ((Count/Count))
system.cpu0.intInstQueueReads                18169234                       # Number of integer instruction queue reads (Count)
system.cpu0.intInstQueueWrites                5731318                       # Number of integer instruction queue writes (Count)
system.cpu0.intInstQueueWakeupAccesses        4323601                       # Number of integer instruction queue wakeup accesses (Count)
system.cpu0.fpInstQueueReads                   227666                       # Number of floating instruction queue reads (Count)
system.cpu0.fpInstQueueWrites                  172621                       # Number of floating instruction queue writes (Count)
system.cpu0.fpInstQueueWakeupAccesses          108887                       # Number of floating instruction queue wakeup accesses (Count)
system.cpu0.vecInstQueueReads                       0                       # Number of vector instruction queue reads (Count)
system.cpu0.vecInstQueueWrites                      0                       # Number of vector instruction queue writes (Count)
system.cpu0.vecInstQueueWakeupAccesses              0                       # Number of vector instruction queue wakeup accesses (Count)
system.cpu0.intAluAccesses                    4423900                       # Number of integer alu accesses (Count)
system.cpu0.fpAluAccesses                      114805                       # Number of floating point alu accesses (Count)
system.cpu0.vecAluAccesses                          0                       # Number of vector alu accesses (Count)
system.cpu0.numInsts                          4462153                       # Number of executed instructions (Count)
system.cpu0.numLoadInsts                       636303                       # Number of load instructions executed (Count)
system.cpu0.numSquashedInsts                    30339                       # Number of squashed instructions skipped in execute (Count)
system.cpu0.numSwp                                  0                       # Number of swp insts executed (Count)
system.cpu0.numNop                                  0                       # Number of nop insts executed (Count)
system.cpu0.numRefs                            843342                       # Number of memory reference insts executed (Count)
system.cpu0.numBranches                        398668                       # Number of branches executed (Count)
system.cpu0.numStoreInsts                      207039                       # Number of stores executed (Count)
system.cpu0.numRate                          0.422810                       # Inst execution rate ((Count/Cycle))
system.cpu0.timesIdled                           2370                       # Number of times that the entire CPU went into an idle state and unscheduled itself (Count)
system.cpu0.idleCycles                        1209406                       # Total number of cycles that the CPU has spent unscheduled due to idling (Cycle)
system.cpu0.committedInsts                    2207884                       # Number of Instructions Simulated (Count)
system.cpu0.committedOps                      3807461                       # Number of Ops (including micro ops) Simulated (Count)
system.cpu0.cpi                              4.779945                       # CPI: Cycles Per Instruction ((Cycle/Count))
system.cpu0.totalCpi                         4.779945                       # CPI: Total CPI of All Threads ((Cycle/Count))
system.cpu0.ipc                              0.209207                       # IPC: Instructions Per Cycle ((Count/Cycle))
system.cpu0.totalIpc                         0.209207                       # IPC: Total IPC of All Threads ((Count/Cycle))
system.cpu0.intRegfileReads                   6076340                       # Number of integer regfile reads (Count)
system.cpu0.intRegfileWrites                  3474042                       # Number of integer regfile writes (Count)
system.cpu0.fpRegfileReads                     147397                       # Number of floating regfile reads (Count)
system.cpu0.fpRegfileWrites                     81945                       # Number of floating regfile writes (Count)
system.cpu0.ccRegfileReads                    2527807                       # number of cc regfile reads (Count)
system.cpu0.ccRegfileWrites                   2083276                       # number of cc regfile writes (Count)
system.cpu0.miscRegfileReads                  1685292                       # number of misc regfile reads (Count)
system.cpu0.miscRegfileWrites                     846                       # number of misc regfile writes (Count)
system.cpu0.MemDepUnit__0.insertedLoads        664043                       # Number of loads inserted to the mem dependence unit. (Count)
system.cpu0.MemDepUnit__0.insertedStores       219185                       # Number of stores inserted to the mem dependence unit. (Count)
system.cpu0.MemDepUnit__0.conflictingLoads        18947                       # Number of conflicting loads. (Count)
system.cpu0.MemDepUnit__0.conflictingStores         8821                       # Number of conflicting stores. (Count)
system.cpu0.MemDepUnit__1.insertedLoads             0                       # Number of loads inserted to the mem dependence unit. (Count)
system.cpu0.MemDepUnit__1.insertedStores            0                       # Number of stores inserted to the mem dependence unit. (Count)
system.cpu0.MemDepUnit__1.conflictingLoads            0                       # Number of conflicting loads. (Count)
system.cpu0.MemDepUnit__1.conflictingStores            0                       # Number of conflicting stores. (Count)
system.cpu0.MemDepUnit__2.insertedLoads             0                       # Number of loads inserted to the mem dependence unit. (Count)
system.cpu0.MemDepUnit__2.insertedStores            0                       # Number of stores inserted to the mem dependence unit. (Count)
system.cpu0.MemDepUnit__2.conflictingLoads            0                       # Number of conflicting loads. (Count)
system.cpu0.MemDepUnit__2.conflictingStores            0                       # Number of conflicting stores. (Count)
system.cpu0.MemDepUnit__3.insertedLoads             0                       # Number of loads inserted to the mem dependence unit. (Count)
system.cpu0.MemDepUnit__3.insertedStores            0                       # Number of stores inserted to the mem dependence unit. (Count)
system.cpu0.MemDepUnit__3.conflictingLoads            0                       # Number of conflicting loads. (Count)
system.cpu0.MemDepUnit__3.conflictingStores            0                       # Number of conflicting stores. (Count)
system.cpu0.branchPred.lookups                 515325                       # Number of BP lookups (Count)
system.cpu0.branchPred.condPredicted           456908                       # Number of conditional branches predicted (Count)
system.cpu0.branchPred.condIncorrect            17131                       # Number of conditional branches incorrect (Count)
system.cpu0.branchPred.BTBLookups              273265                       # Number of BTB lookups (Count)
system.cpu0.branchPred.BTBUpdates                8660                       # Number of BTB updates (Count)
system.cpu0.branchPred.BTBHits                 269197                       # Number of BTB hits (Count)
system.cpu0.branchPred.BTBHitRatio           0.985113                       # BTB Hit Ratio (Ratio)
system.cpu0.branchPred.RASUsed                  13424                       # Number of times the RAS was used to get a target. (Count)
system.cpu0.branchPred.RASIncorrect                 8                       # Number of incorrect RAS predictions. (Count)
system.cpu0.branchPred.indirectLookups           9896                       # Number of indirect predictor lookups. (Count)
system.cpu0.branchPred.indirectHits              5172                       # Number of indirect target hits. (Count)
system.cpu0.branchPred.indirectMisses            4724                       # Number of indirect misses. (Count)
system.cpu0.branchPred.indirectMispredicted         1177                       # Number of mispredicted indirect branches. (Count)
system.cpu0.commit.commitSquashedInsts        1039147                       # The number of squashed insts skipped by commit (Count)
system.cpu0.commit.commitNonSpecStalls            853                       # The number of times commit has been forced to stall to communicate backwards (Count)
system.cpu0.commit.branchMispredicts            18645                       # The number of times a branch was mispredicted (Count)
system.cpu0.commit.numCommittedDist::samples      9193150                       # Number of insts commited each cycle (Count)
system.cpu0.commit.numCommittedDist::mean     0.414163                       # Number of insts commited each cycle (Count)
system.cpu0.commit.numCommittedDist::stdev     1.467642                       # Number of insts commited each cycle (Count)
system.cpu0.commit.numCommittedDist::underflows            0      0.00%      0.00% # Number of insts commited each cycle (Count)
system.cpu0.commit.numCommittedDist::0        8217780     89.39%     89.39% # Number of insts commited each cycle (Count)
system.cpu0.commit.numCommittedDist::1         231214      2.52%     91.91% # Number of insts commited each cycle (Count)
system.cpu0.commit.numCommittedDist::2         102365      1.11%     93.02% # Number of insts commited each cycle (Count)
system.cpu0.commit.numCommittedDist::3         246632      2.68%     95.70% # Number of insts commited each cycle (Count)
system.cpu0.commit.numCommittedDist::4          45244      0.49%     96.19% # Number of insts commited each cycle (Count)
system.cpu0.commit.numCommittedDist::5         100042      1.09%     97.28% # Number of insts commited each cycle (Count)
system.cpu0.commit.numCommittedDist::6          14874      0.16%     97.44% # Number of insts commited each cycle (Count)
system.cpu0.commit.numCommittedDist::7          18801      0.20%     97.65% # Number of insts commited each cycle (Count)
system.cpu0.commit.numCommittedDist::8         216198      2.35%    100.00% # Number of insts commited each cycle (Count)
system.cpu0.commit.numCommittedDist::overflows            0      0.00%    100.00% # Number of insts commited each cycle (Count)
system.cpu0.commit.numCommittedDist::min_value            0                       # Number of insts commited each cycle (Count)
system.cpu0.commit.numCommittedDist::max_value            8                       # Number of insts commited each cycle (Count)
system.cpu0.commit.numCommittedDist::total      9193150                       # Number of insts commited each cycle (Count)
system.cpu0.commit.instsCommitted             2207884                       # Number of instructions committed (Count)
system.cpu0.commit.opsCommitted               3807461                       # Number of ops (including micro ops) committed (Count)
system.cpu0.commit.memRefs                     707813                       # Number of memory references committed (Count)
system.cpu0.commit.loads                       526475                       # Number of loads committed (Count)
system.cpu0.commit.amos                             0                       # Number of atomic instructions committed (Count)
system.cpu0.commit.membars                          2                       # Number of memory barriers committed (Count)
system.cpu0.commit.branches                    362718                       # Number of branches committed (Count)
system.cpu0.commit.vectorInstructions               0                       # Number of committed Vector instructions. (Count)
system.cpu0.commit.floating                     80373                       # Number of committed floating point instructions. (Count)
system.cpu0.commit.integer                    3748670                       # Number of committed integer instructions. (Count)
system.cpu0.commit.functionCalls                 9592                       # Number of function calls committed. (Count)
system.cpu0.commit.committedInstType_0::No_OpClass        10823      0.28%      0.28% # Class of committed instruction (Count)
system.cpu0.commit.committedInstType_0::IntAlu      3008411     79.01%     79.30% # Class of committed instruction (Count)
system.cpu0.commit.committedInstType_0::IntMult           29      0.00%     79.30% # Class of committed instruction (Count)
system.cpu0.commit.committedInstType_0::IntDiv        35830      0.94%     80.24% # Class of committed instruction (Count)
system.cpu0.commit.committedInstType_0::FloatAdd         3175      0.08%     80.32% # Class of committed instruction (Count)
system.cpu0.commit.committedInstType_0::FloatCmp            0      0.00%     80.32% # Class of committed instruction (Count)
system.cpu0.commit.committedInstType_0::FloatCvt         1504      0.04%     80.36% # Class of committed instruction (Count)
system.cpu0.commit.committedInstType_0::FloatMult            0      0.00%     80.36% # Class of committed instruction (Count)
system.cpu0.commit.committedInstType_0::FloatMultAcc            0      0.00%     80.36% # Class of committed instruction (Count)
system.cpu0.commit.committedInstType_0::FloatDiv            0      0.00%     80.36% # Class of committed instruction (Count)
system.cpu0.commit.committedInstType_0::FloatMisc            0      0.00%     80.36% # Class of committed instruction (Count)
system.cpu0.commit.committedInstType_0::FloatSqrt            0      0.00%     80.36% # Class of committed instruction (Count)
system.cpu0.commit.committedInstType_0::SimdAdd         6610      0.17%     80.54% # Class of committed instruction (Count)
system.cpu0.commit.committedInstType_0::SimdAddAcc            0      0.00%     80.54% # Class of committed instruction (Count)
system.cpu0.commit.committedInstType_0::SimdAlu        11924      0.31%     80.85% # Class of committed instruction (Count)
system.cpu0.commit.committedInstType_0::SimdCmp            0      0.00%     80.85% # Class of committed instruction (Count)
system.cpu0.commit.committedInstType_0::SimdCvt        12922      0.34%     81.19% # Class of committed instruction (Count)
system.cpu0.commit.committedInstType_0::SimdMisc         7067      0.19%     81.37% # Class of committed instruction (Count)
system.cpu0.commit.committedInstType_0::SimdMult            0      0.00%     81.37% # Class of committed instruction (Count)
system.cpu0.commit.committedInstType_0::SimdMultAcc            0      0.00%     81.37% # Class of committed instruction (Count)
system.cpu0.commit.committedInstType_0::SimdShift         1353      0.04%     81.41% # Class of committed instruction (Count)
system.cpu0.commit.committedInstType_0::SimdShiftAcc            0      0.00%     81.41% # Class of committed instruction (Count)
system.cpu0.commit.committedInstType_0::SimdDiv            0      0.00%     81.41% # Class of committed instruction (Count)
system.cpu0.commit.committedInstType_0::SimdSqrt            0      0.00%     81.41% # Class of committed instruction (Count)
system.cpu0.commit.committedInstType_0::SimdFloatAdd            0      0.00%     81.41% # Class of committed instruction (Count)
system.cpu0.commit.committedInstType_0::SimdFloatAlu            0      0.00%     81.41% # Class of committed instruction (Count)
system.cpu0.commit.committedInstType_0::SimdFloatCmp            0      0.00%     81.41% # Class of committed instruction (Count)
system.cpu0.commit.committedInstType_0::SimdFloatCvt            0      0.00%     81.41% # Class of committed instruction (Count)
system.cpu0.commit.committedInstType_0::SimdFloatDiv            0      0.00%     81.41% # Class of committed instruction (Count)
system.cpu0.commit.committedInstType_0::SimdFloatMisc            0      0.00%     81.41% # Class of committed instruction (Count)
system.cpu0.commit.committedInstType_0::SimdFloatMult            0      0.00%     81.41% # Class of committed instruction (Count)
system.cpu0.commit.committedInstType_0::SimdFloatMultAcc            0      0.00%     81.41% # Class of committed instruction (Count)
system.cpu0.commit.committedInstType_0::SimdFloatSqrt            0      0.00%     81.41% # Class of committed instruction (Count)
system.cpu0.commit.committedInstType_0::SimdReduceAdd            0      0.00%     81.41% # Class of committed instruction (Count)
system.cpu0.commit.committedInstType_0::SimdReduceAlu            0      0.00%     81.41% # Class of committed instruction (Count)
system.cpu0.commit.committedInstType_0::SimdReduceCmp            0      0.00%     81.41% # Class of committed instruction (Count)
system.cpu0.commit.committedInstType_0::SimdFloatReduceAdd            0      0.00%     81.41% # Class of committed instruction (Count)
system.cpu0.commit.committedInstType_0::SimdFloatReduceCmp            0      0.00%     81.41% # Class of committed instruction (Count)
system.cpu0.commit.committedInstType_0::SimdAes            0      0.00%     81.41% # Class of committed instruction (Count)
system.cpu0.commit.committedInstType_0::SimdAesMix            0      0.00%     81.41% # Class of committed instruction (Count)
system.cpu0.commit.committedInstType_0::SimdSha1Hash            0      0.00%     81.41% # Class of committed instruction (Count)
system.cpu0.commit.committedInstType_0::SimdSha1Hash2            0      0.00%     81.41% # Class of committed instruction (Count)
system.cpu0.commit.committedInstType_0::SimdSha256Hash            0      0.00%     81.41% # Class of committed instruction (Count)
system.cpu0.commit.committedInstType_0::SimdSha256Hash2            0      0.00%     81.41% # Class of committed instruction (Count)
system.cpu0.commit.committedInstType_0::SimdShaSigma2            0      0.00%     81.41% # Class of committed instruction (Count)
system.cpu0.commit.committedInstType_0::SimdShaSigma3            0      0.00%     81.41% # Class of committed instruction (Count)
system.cpu0.commit.committedInstType_0::SimdPredAlu            0      0.00%     81.41% # Class of committed instruction (Count)
system.cpu0.commit.committedInstType_0::MemRead       505440     13.27%     94.68% # Class of committed instruction (Count)
system.cpu0.commit.committedInstType_0::MemWrite       167424      4.40%     99.08% # Class of committed instruction (Count)
system.cpu0.commit.committedInstType_0::FloatMemRead        21035      0.55%     99.63% # Class of committed instruction (Count)
system.cpu0.commit.committedInstType_0::FloatMemWrite        13914      0.37%    100.00% # Class of committed instruction (Count)
system.cpu0.commit.committedInstType_0::IprAccess            0      0.00%    100.00% # Class of committed instruction (Count)
system.cpu0.commit.committedInstType_0::InstPrefetch            0      0.00%    100.00% # Class of committed instruction (Count)
system.cpu0.commit.committedInstType_0::total      3807461                       # Class of committed instruction (Count)
system.cpu0.commit.commitEligibleSamples       216198                       # number cycles where commit BW limit reached (Cycle)
system.cpu0.decode.idleCycles                  482526                       # Number of cycles decode is idle (Cycle)
system.cpu0.decode.blockedCycles              8122894                       # Number of cycles decode is blocked (Cycle)
system.cpu0.decode.runCycles                   518171                       # Number of cycles decode is running (Cycle)
system.cpu0.decode.unblockCycles               201202                       # Number of cycles decode is unblocking (Cycle)
system.cpu0.decode.squashCycles                 19364                       # Number of cycles decode is squashing (Cycle)
system.cpu0.decode.branchResolved              255150                       # Number of times decode resolved a branch (Count)
system.cpu0.decode.branchMispred                 1202                       # Number of times decode detected a branch misprediction (Count)
system.cpu0.decode.decodedInsts               5040321                       # Number of instructions handled by decode (Count)
system.cpu0.decode.squashedInsts                 5672                       # Number of squashed instructions handled by decode (Count)
system.cpu0.fetch.icacheStallCycles            465381                       # Number of cycles fetch is stalled on an Icache miss (Cycle)
system.cpu0.fetch.insts                       3051551                       # Number of instructions fetch has processed (Count)
system.cpu0.fetch.branches                     515325                       # Number of branches that fetch encountered (Count)
system.cpu0.fetch.predictedBranches            287793                       # Number of branches that fetch has predicted taken (Count)
system.cpu0.fetch.cycles                      8616435                       # Number of cycles fetch has run and was not squashing or blocked (Cycle)
system.cpu0.fetch.squashCycles                  41084                       # Number of cycles fetch has spent squashing (Cycle)
system.cpu0.fetch.miscStallCycles               14691                       # Number of cycles fetch has spent waiting on interrupts, or bad addresses, or out of MSHRs (Cycle)
system.cpu0.fetch.pendingTrapStallCycles        17759                       # Number of stall cycles due to pending traps (Cycle)
system.cpu0.fetch.icacheWaitRetryStallCycles       209349                       # Number of stall cycles due to full MSHR (Cycle)
system.cpu0.fetch.cacheLines                   263934                       # Number of cache lines fetched (Count)
system.cpu0.fetch.icacheSquashes                 4701                       # Number of outstanding Icache misses that were squashed (Count)
system.cpu0.fetch.nisnDist::samples           9344157                       # Number of instructions fetched each cycle (Total) (Count)
system.cpu0.fetch.nisnDist::mean             0.572357                       # Number of instructions fetched each cycle (Total) (Count)
system.cpu0.fetch.nisnDist::stdev            1.910421                       # Number of instructions fetched each cycle (Total) (Count)
system.cpu0.fetch.nisnDist::underflows              0      0.00%      0.00% # Number of instructions fetched each cycle (Total) (Count)
system.cpu0.fetch.nisnDist::0                 8460135     90.54%     90.54% # Number of instructions fetched each cycle (Total) (Count)
system.cpu0.fetch.nisnDist::1                   43338      0.46%     91.00% # Number of instructions fetched each cycle (Total) (Count)
system.cpu0.fetch.nisnDist::2                   39528      0.42%     91.43% # Number of instructions fetched each cycle (Total) (Count)
system.cpu0.fetch.nisnDist::3                   67262      0.72%     92.15% # Number of instructions fetched each cycle (Total) (Count)
system.cpu0.fetch.nisnDist::4                  139004      1.49%     93.63% # Number of instructions fetched each cycle (Total) (Count)
system.cpu0.fetch.nisnDist::5                   60218      0.64%     94.28% # Number of instructions fetched each cycle (Total) (Count)
system.cpu0.fetch.nisnDist::6                   33136      0.35%     94.63% # Number of instructions fetched each cycle (Total) (Count)
system.cpu0.fetch.nisnDist::7                   44201      0.47%     95.11% # Number of instructions fetched each cycle (Total) (Count)
system.cpu0.fetch.nisnDist::8                  457335      4.89%    100.00% # Number of instructions fetched each cycle (Total) (Count)
system.cpu0.fetch.nisnDist::overflows               0      0.00%    100.00% # Number of instructions fetched each cycle (Total) (Count)
system.cpu0.fetch.nisnDist::min_value               0                       # Number of instructions fetched each cycle (Total) (Count)
system.cpu0.fetch.nisnDist::max_value               8                       # Number of instructions fetched each cycle (Total) (Count)
system.cpu0.fetch.nisnDist::total             9344157                       # Number of instructions fetched each cycle (Total) (Count)
system.cpu0.fetch.branchRate                 0.048829                       # Number of branch fetches per cycle (Ratio)
system.cpu0.fetch.rate                       0.289149                       # Number of inst fetches per cycle ((Count/Cycle))
system.cpu0.iew.idleCycles                          0                       # Number of cycles IEW is idle (Cycle)
system.cpu0.iew.squashCycles                    19364                       # Number of cycles IEW is squashing (Cycle)
system.cpu0.iew.blockCycles                   5349666                       # Number of cycles IEW is blocking (Cycle)
system.cpu0.iew.unblockCycles                  156331                       # Number of cycles IEW is unblocking (Cycle)
system.cpu0.iew.dispatchedInsts               4855628                       # Number of instructions dispatched to IQ (Count)
system.cpu0.iew.dispSquashedInsts                1104                       # Number of squashed instructions skipped by dispatch (Count)
system.cpu0.iew.dispLoadInsts                  664043                       # Number of dispatched load instructions (Count)
system.cpu0.iew.dispStoreInsts                 219185                       # Number of dispatched store instructions (Count)
system.cpu0.iew.dispNonSpecInsts                  900                       # Number of dispatched non-speculative instructions (Count)
system.cpu0.iew.iqFullEvents                     7291                       # Number of times the IQ has become full, causing a stall (Count)
system.cpu0.iew.lsqFullEvents                  143874                       # Number of times the LSQ has become full, causing a stall (Count)
system.cpu0.iew.memOrderViolationEvents           152                       # Number of memory order violations (Count)
system.cpu0.iew.predictedTakenIncorrect          7935                       # Number of branches that were predicted taken incorrectly (Count)
system.cpu0.iew.predictedNotTakenIncorrect        12934                       # Number of branches that were predicted not taken incorrectly (Count)
system.cpu0.iew.branchMispredicts               20869                       # Number of branch mispredicts detected at execute (Count)
system.cpu0.iew.instsToCommit                 4444571                       # Cumulative count of insts sent to commit (Count)
system.cpu0.iew.writebackCount                4432488                       # Cumulative count of insts written-back (Count)
system.cpu0.iew.producerInst                  3579141                       # Number of instructions producing a value (Count)
system.cpu0.iew.consumerInst                  6600401                       # Number of instructions consuming a value (Count)
system.cpu0.iew.wbRate                       0.419999                       # Insts written-back per cycle ((Count/Cycle))
system.cpu0.iew.wbFanout                     0.542261                       # Average fanout of values written-back ((Count/Count))
system.cpu0.interrupts.clk_domain.clock          8000                       # Clock period in ticks (Tick)
system.cpu0.lsq0.forwLoads                      58923                       # Number of loads that had data forwarded from stores (Count)
system.cpu0.lsq0.squashedLoads                 137568                       # Number of loads squashed (Count)
system.cpu0.lsq0.ignoredResponses                  96                       # Number of memory responses ignored because the instruction is squashed (Count)
system.cpu0.lsq0.memOrderViolation                152                       # Number of memory ordering violations (Count)
system.cpu0.lsq0.squashedStores                 37847                       # Number of stores squashed (Count)
system.cpu0.lsq0.rescheduledLoads                  14                       # Number of loads that were rescheduled (Count)
system.cpu0.lsq0.blockedByCache                  2104                       # Number of times an access to memory failed due to the cache being blocked (Count)
system.cpu0.lsq0.loadToUse::samples            526397                       # Distribution of cycle latency between the first time a load is issued and its completion (Unspecified)
system.cpu0.lsq0.loadToUse::mean            65.531565                       # Distribution of cycle latency between the first time a load is issued and its completion (Unspecified)
system.cpu0.lsq0.loadToUse::stdev          222.347230                       # Distribution of cycle latency between the first time a load is issued and its completion (Unspecified)
system.cpu0.lsq0.loadToUse::0-9                481057     91.39%     91.39% # Distribution of cycle latency between the first time a load is issued and its completion (Unspecified)
system.cpu0.lsq0.loadToUse::10-19                 103      0.02%     91.41% # Distribution of cycle latency between the first time a load is issued and its completion (Unspecified)
system.cpu0.lsq0.loadToUse::20-29                  81      0.02%     91.42% # Distribution of cycle latency between the first time a load is issued and its completion (Unspecified)
system.cpu0.lsq0.loadToUse::30-39                  78      0.01%     91.44% # Distribution of cycle latency between the first time a load is issued and its completion (Unspecified)
system.cpu0.lsq0.loadToUse::40-49                  55      0.01%     91.45% # Distribution of cycle latency between the first time a load is issued and its completion (Unspecified)
system.cpu0.lsq0.loadToUse::50-59                  92      0.02%     91.46% # Distribution of cycle latency between the first time a load is issued and its completion (Unspecified)
system.cpu0.lsq0.loadToUse::60-69                  79      0.02%     91.48% # Distribution of cycle latency between the first time a load is issued and its completion (Unspecified)
system.cpu0.lsq0.loadToUse::70-79                  64      0.01%     91.49% # Distribution of cycle latency between the first time a load is issued and its completion (Unspecified)
system.cpu0.lsq0.loadToUse::80-89                  84      0.02%     91.51% # Distribution of cycle latency between the first time a load is issued and its completion (Unspecified)
system.cpu0.lsq0.loadToUse::90-99                  94      0.02%     91.53% # Distribution of cycle latency between the first time a load is issued and its completion (Unspecified)
system.cpu0.lsq0.loadToUse::100-109                95      0.02%     91.54% # Distribution of cycle latency between the first time a load is issued and its completion (Unspecified)
system.cpu0.lsq0.loadToUse::110-119                78      0.01%     91.56% # Distribution of cycle latency between the first time a load is issued and its completion (Unspecified)
system.cpu0.lsq0.loadToUse::120-129                69      0.01%     91.57% # Distribution of cycle latency between the first time a load is issued and its completion (Unspecified)
system.cpu0.lsq0.loadToUse::130-139                71      0.01%     91.58% # Distribution of cycle latency between the first time a load is issued and its completion (Unspecified)
system.cpu0.lsq0.loadToUse::140-149                58      0.01%     91.60% # Distribution of cycle latency between the first time a load is issued and its completion (Unspecified)
system.cpu0.lsq0.loadToUse::150-159                56      0.01%     91.61% # Distribution of cycle latency between the first time a load is issued and its completion (Unspecified)
system.cpu0.lsq0.loadToUse::160-169                65      0.01%     91.62% # Distribution of cycle latency between the first time a load is issued and its completion (Unspecified)
system.cpu0.lsq0.loadToUse::170-179               128      0.02%     91.64% # Distribution of cycle latency between the first time a load is issued and its completion (Unspecified)
system.cpu0.lsq0.loadToUse::180-189               597      0.11%     91.76% # Distribution of cycle latency between the first time a load is issued and its completion (Unspecified)
system.cpu0.lsq0.loadToUse::190-199                29      0.01%     91.76% # Distribution of cycle latency between the first time a load is issued and its completion (Unspecified)
system.cpu0.lsq0.loadToUse::200-209                39      0.01%     91.77% # Distribution of cycle latency between the first time a load is issued and its completion (Unspecified)
system.cpu0.lsq0.loadToUse::210-219                43      0.01%     91.78% # Distribution of cycle latency between the first time a load is issued and its completion (Unspecified)
system.cpu0.lsq0.loadToUse::220-229                72      0.01%     91.79% # Distribution of cycle latency between the first time a load is issued and its completion (Unspecified)
system.cpu0.lsq0.loadToUse::230-239               116      0.02%     91.81% # Distribution of cycle latency between the first time a load is issued and its completion (Unspecified)
system.cpu0.lsq0.loadToUse::240-249               532      0.10%     91.91% # Distribution of cycle latency between the first time a load is issued and its completion (Unspecified)
system.cpu0.lsq0.loadToUse::250-259                54      0.01%     91.92% # Distribution of cycle latency between the first time a load is issued and its completion (Unspecified)
system.cpu0.lsq0.loadToUse::260-269                33      0.01%     91.93% # Distribution of cycle latency between the first time a load is issued and its completion (Unspecified)
system.cpu0.lsq0.loadToUse::270-279                68      0.01%     91.94% # Distribution of cycle latency between the first time a load is issued and its completion (Unspecified)
system.cpu0.lsq0.loadToUse::280-289               107      0.02%     91.96% # Distribution of cycle latency between the first time a load is issued and its completion (Unspecified)
system.cpu0.lsq0.loadToUse::290-299               146      0.03%     91.99% # Distribution of cycle latency between the first time a load is issued and its completion (Unspecified)
system.cpu0.lsq0.loadToUse::overflows           42154      8.01%    100.00% # Distribution of cycle latency between the first time a load is issued and its completion (Unspecified)
system.cpu0.lsq0.loadToUse::min_value               2                       # Distribution of cycle latency between the first time a load is issued and its completion (Unspecified)
system.cpu0.lsq0.loadToUse::max_value            2459                       # Distribution of cycle latency between the first time a load is issued and its completion (Unspecified)
system.cpu0.lsq0.loadToUse::total              526397                       # Distribution of cycle latency between the first time a load is issued and its completion (Unspecified)
system.cpu0.mmu.dtb.rdAccesses                 630682                       # TLB accesses on read requests (Count)
system.cpu0.mmu.dtb.wrAccesses                 207052                       # TLB accesses on write requests (Count)
system.cpu0.mmu.dtb.rdMisses                     3155                       # TLB misses on read requests (Count)
system.cpu0.mmu.dtb.wrMisses                      435                       # TLB misses on write requests (Count)
system.cpu0.mmu.dtb.walker.power_state.pwrStateResidencyTicks::UNDEFINED   5329966500                       # Cumulative time (in ticks) in various power states (Tick)
system.cpu0.mmu.itb.rdAccesses                      0                       # TLB accesses on read requests (Count)
system.cpu0.mmu.itb.wrAccesses                 266710                       # TLB accesses on write requests (Count)
system.cpu0.mmu.itb.rdMisses                        0                       # TLB misses on read requests (Count)
system.cpu0.mmu.itb.wrMisses                     3346                       # TLB misses on write requests (Count)
system.cpu0.mmu.itb.walker.power_state.pwrStateResidencyTicks::UNDEFINED   5329966500                       # Cumulative time (in ticks) in various power states (Tick)
system.cpu0.power_state.pwrStateResidencyTicks::ON   5329966500                       # Cumulative time (in ticks) in various power states (Tick)
system.cpu0.rename.squashCycles                 19364                       # Number of cycles rename is squashing (Cycle)
system.cpu0.rename.idleCycles                  558607                       # Number of cycles rename is idle (Cycle)
system.cpu0.rename.blockCycles                7089739                       # Number of cycles rename is blocking (Cycle)
system.cpu0.rename.serializeStallCycles         24341                       # count of cycles rename stalled for serializing inst (Cycle)
system.cpu0.rename.runCycles                   633956                       # Number of cycles rename is running (Cycle)
system.cpu0.rename.unblockCycles              1018150                       # Number of cycles rename is unblocking (Cycle)
system.cpu0.rename.renamedInsts               4959618                       # Number of instructions processed by rename (Count)
system.cpu0.rename.ROBFullEvents               109626                       # Number of times rename has blocked due to ROB full (Count)
system.cpu0.rename.IQFullEvents                260087                       # Number of times rename has blocked due to IQ full (Count)
system.cpu0.rename.LQFullEvents                158248                       # Number of times rename has blocked due to LQ full (Count)
system.cpu0.rename.SQFullEvents                546285                       # Number of times rename has blocked due to SQ full (Count)
system.cpu0.rename.fullRegistersEvents           3116                       # Number of times there has been no free registers (Count)
system.cpu0.rename.renamedOperands           10521391                       # Number of destination operands rename has renamed (Count)
system.cpu0.rename.lookups                   18811864                       # Number of register rename lookups that rename has made (Count)
system.cpu0.rename.intLookups                 7005006                       # Number of integer rename lookups (Count)
system.cpu0.rename.fpLookups                   184641                       # Number of floating rename lookups (Count)
system.cpu0.rename.committedMaps              8163333                       # Number of HB maps that are committed (Count)
system.cpu0.rename.undoneMaps                 2358058                       # Number of HB maps that are undone due to squashing (Count)
system.cpu0.rename.serializing                    874                       # count of serializing insts renamed (Count)
system.cpu0.rename.tempSerializing                859                       # count of temporary serializing insts renamed (Count)
system.cpu0.rename.skidInsts                   927195                       # count of insts added to the skid buffer (Count)
system.cpu0.rob.reads                        13815825                       # The number of ROB reads (Count)
system.cpu0.rob.writes                        9844448                       # The number of ROB writes (Count)
system.cpu0.thread_0.numInsts                 2207884                       # Number of Instructions committed (Count)
system.cpu0.thread_0.numOps                   3807461                       # Number of Ops committed (Count)
system.cpu0.thread_0.numMemRefs                     0                       # Number of Memory References (Count)
system.cpu0.workload.numSyscalls                   63                       # Number of system calls (Count)
system.cpu1.numCycles                        10212848                       # Number of cpu cycles simulated (Cycle)
system.cpu1.numWorkItemsStarted                     0                       # Number of work items this cpu started (Count)
system.cpu1.numWorkItemsCompleted                   0                       # Number of work items this cpu completed (Count)
system.cpu1.instsAdded                        4853895                       # Number of instructions added to the IQ (excludes non-spec) (Count)
system.cpu1.nonSpecInstsAdded                    1095                       # Number of non-speculative instructions added to the IQ (Count)
system.cpu1.instsIssued                       4491428                       # Number of instructions issued (Count)
system.cpu1.squashedInstsIssued                  3094                       # Number of squashed instructions issued (Count)
system.cpu1.squashedInstsExamined             1047529                       # Number of squashed instructions iterated over during squash; mainly for profiling (Count)
system.cpu1.squashedOperandsExamined          2258885                       # Number of squashed operands that are examined and possibly removed from graph (Count)
system.cpu1.squashedNonSpecRemoved                242                       # Number of squashed non-spec instructions that were removed (Count)
system.cpu1.numIssuedDist::samples            9065252                       # Number of insts issued each cycle (Count)
system.cpu1.numIssuedDist::mean              0.495455                       # Number of insts issued each cycle (Count)
system.cpu1.numIssuedDist::stdev             1.425653                       # Number of insts issued each cycle (Count)
system.cpu1.numIssuedDist::underflows               0      0.00%      0.00% # Number of insts issued each cycle (Count)
system.cpu1.numIssuedDist::0                  7804455     86.09%     86.09% # Number of insts issued each cycle (Count)
system.cpu1.numIssuedDist::1                   200565      2.21%     88.30% # Number of insts issued each cycle (Count)
system.cpu1.numIssuedDist::2                   235033      2.59%     90.90% # Number of insts issued each cycle (Count)
system.cpu1.numIssuedDist::3                   245752      2.71%     93.61% # Number of insts issued each cycle (Count)
system.cpu1.numIssuedDist::4                   195256      2.15%     95.76% # Number of insts issued each cycle (Count)
system.cpu1.numIssuedDist::5                   149519      1.65%     97.41% # Number of insts issued each cycle (Count)
system.cpu1.numIssuedDist::6                   126778      1.40%     98.81% # Number of insts issued each cycle (Count)
system.cpu1.numIssuedDist::7                    68898      0.76%     99.57% # Number of insts issued each cycle (Count)
system.cpu1.numIssuedDist::8                    38996      0.43%    100.00% # Number of insts issued each cycle (Count)
system.cpu1.numIssuedDist::overflows                0      0.00%    100.00% # Number of insts issued each cycle (Count)
system.cpu1.numIssuedDist::min_value                0                       # Number of insts issued each cycle (Count)
system.cpu1.numIssuedDist::max_value                8                       # Number of insts issued each cycle (Count)
system.cpu1.numIssuedDist::total              9065252                       # Number of insts issued each cycle (Count)
system.cpu1.statFuBusy::No_OpClass                  0      0.00%      0.00% # attempts to use FU when none available (Count)
system.cpu1.statFuBusy::IntAlu                  42804     66.11%     66.11% # attempts to use FU when none available (Count)
system.cpu1.statFuBusy::IntMult                     0      0.00%     66.11% # attempts to use FU when none available (Count)
system.cpu1.statFuBusy::IntDiv                      0      0.00%     66.11% # attempts to use FU when none available (Count)
system.cpu1.statFuBusy::FloatAdd                    0      0.00%     66.11% # attempts to use FU when none available (Count)
system.cpu1.statFuBusy::FloatCmp                    0      0.00%     66.11% # attempts to use FU when none available (Count)
system.cpu1.statFuBusy::FloatCvt                    0      0.00%     66.11% # attempts to use FU when none available (Count)
system.cpu1.statFuBusy::FloatMult                   0      0.00%     66.11% # attempts to use FU when none available (Count)
system.cpu1.statFuBusy::FloatMultAcc                0      0.00%     66.11% # attempts to use FU when none available (Count)
system.cpu1.statFuBusy::FloatDiv                    0      0.00%     66.11% # attempts to use FU when none available (Count)
system.cpu1.statFuBusy::FloatMisc                   0      0.00%     66.11% # attempts to use FU when none available (Count)
system.cpu1.statFuBusy::FloatSqrt                   0      0.00%     66.11% # attempts to use FU when none available (Count)
system.cpu1.statFuBusy::SimdAdd                     0      0.00%     66.11% # attempts to use FU when none available (Count)
system.cpu1.statFuBusy::SimdAddAcc                  0      0.00%     66.11% # attempts to use FU when none available (Count)
system.cpu1.statFuBusy::SimdAlu                   123      0.19%     66.30% # attempts to use FU when none available (Count)
system.cpu1.statFuBusy::SimdCmp                     0      0.00%     66.30% # attempts to use FU when none available (Count)
system.cpu1.statFuBusy::SimdCvt                   122      0.19%     66.49% # attempts to use FU when none available (Count)
system.cpu1.statFuBusy::SimdMisc                    1      0.00%     66.49% # attempts to use FU when none available (Count)
system.cpu1.statFuBusy::SimdMult                    0      0.00%     66.49% # attempts to use FU when none available (Count)
system.cpu1.statFuBusy::SimdMultAcc                 0      0.00%     66.49% # attempts to use FU when none available (Count)
system.cpu1.statFuBusy::SimdShift                 135      0.21%     66.70% # attempts to use FU when none available (Count)
system.cpu1.statFuBusy::SimdShiftAcc                0      0.00%     66.70% # attempts to use FU when none available (Count)
system.cpu1.statFuBusy::SimdDiv                     0      0.00%     66.70% # attempts to use FU when none available (Count)
system.cpu1.statFuBusy::SimdSqrt                    0      0.00%     66.70% # attempts to use FU when none available (Count)
system.cpu1.statFuBusy::SimdFloatAdd                0      0.00%     66.70% # attempts to use FU when none available (Count)
system.cpu1.statFuBusy::SimdFloatAlu                0      0.00%     66.70% # attempts to use FU when none available (Count)
system.cpu1.statFuBusy::SimdFloatCmp                0      0.00%     66.70% # attempts to use FU when none available (Count)
system.cpu1.statFuBusy::SimdFloatCvt                0      0.00%     66.70% # attempts to use FU when none available (Count)
system.cpu1.statFuBusy::SimdFloatDiv                0      0.00%     66.70% # attempts to use FU when none available (Count)
system.cpu1.statFuBusy::SimdFloatMisc               0      0.00%     66.70% # attempts to use FU when none available (Count)
system.cpu1.statFuBusy::SimdFloatMult               0      0.00%     66.70% # attempts to use FU when none available (Count)
system.cpu1.statFuBusy::SimdFloatMultAcc            0      0.00%     66.70% # attempts to use FU when none available (Count)
system.cpu1.statFuBusy::SimdFloatSqrt               0      0.00%     66.70% # attempts to use FU when none available (Count)
system.cpu1.statFuBusy::SimdReduceAdd               0      0.00%     66.70% # attempts to use FU when none available (Count)
system.cpu1.statFuBusy::SimdReduceAlu               0      0.00%     66.70% # attempts to use FU when none available (Count)
system.cpu1.statFuBusy::SimdReduceCmp               0      0.00%     66.70% # attempts to use FU when none available (Count)
system.cpu1.statFuBusy::SimdFloatReduceAdd            0      0.00%     66.70% # attempts to use FU when none available (Count)
system.cpu1.statFuBusy::SimdFloatReduceCmp            0      0.00%     66.70% # attempts to use FU when none available (Count)
system.cpu1.statFuBusy::SimdAes                     0      0.00%     66.70% # attempts to use FU when none available (Count)
system.cpu1.statFuBusy::SimdAesMix                  0      0.00%     66.70% # attempts to use FU when none available (Count)
system.cpu1.statFuBusy::SimdSha1Hash                0      0.00%     66.70% # attempts to use FU when none available (Count)
system.cpu1.statFuBusy::SimdSha1Hash2               0      0.00%     66.70% # attempts to use FU when none available (Count)
system.cpu1.statFuBusy::SimdSha256Hash              0      0.00%     66.70% # attempts to use FU when none available (Count)
system.cpu1.statFuBusy::SimdSha256Hash2             0      0.00%     66.70% # attempts to use FU when none available (Count)
system.cpu1.statFuBusy::SimdShaSigma2               0      0.00%     66.70% # attempts to use FU when none available (Count)
system.cpu1.statFuBusy::SimdShaSigma3               0      0.00%     66.70% # attempts to use FU when none available (Count)
system.cpu1.statFuBusy::SimdPredAlu                 0      0.00%     66.70% # attempts to use FU when none available (Count)
system.cpu1.statFuBusy::MemRead                 11988     18.52%     85.22% # attempts to use FU when none available (Count)
system.cpu1.statFuBusy::MemWrite                 7723     11.93%     97.14% # attempts to use FU when none available (Count)
system.cpu1.statFuBusy::FloatMemRead             1404      2.17%     99.31% # attempts to use FU when none available (Count)
system.cpu1.statFuBusy::FloatMemWrite             445      0.69%    100.00% # attempts to use FU when none available (Count)
system.cpu1.statFuBusy::IprAccess                   0      0.00%    100.00% # attempts to use FU when none available (Count)
system.cpu1.statFuBusy::InstPrefetch                0      0.00%    100.00% # attempts to use FU when none available (Count)
system.cpu1.statIssuedInstType_0::No_OpClass        18364      0.41%      0.41% # Number of instructions issued per FU type, per thread (Count)
system.cpu1.statIssuedInstType_0::IntAlu      3521849     78.41%     78.82% # Number of instructions issued per FU type, per thread (Count)
system.cpu1.statIssuedInstType_0::IntMult           38      0.00%     78.82% # Number of instructions issued per FU type, per thread (Count)
system.cpu1.statIssuedInstType_0::IntDiv        38208      0.85%     79.67% # Number of instructions issued per FU type, per thread (Count)
system.cpu1.statIssuedInstType_0::FloatAdd         4303      0.10%     79.77% # Number of instructions issued per FU type, per thread (Count)
system.cpu1.statIssuedInstType_0::FloatCmp            0      0.00%     79.77% # Number of instructions issued per FU type, per thread (Count)
system.cpu1.statIssuedInstType_0::FloatCvt         1688      0.04%     79.81% # Number of instructions issued per FU type, per thread (Count)
system.cpu1.statIssuedInstType_0::FloatMult            0      0.00%     79.81% # Number of instructions issued per FU type, per thread (Count)
system.cpu1.statIssuedInstType_0::FloatMultAcc            0      0.00%     79.81% # Number of instructions issued per FU type, per thread (Count)
system.cpu1.statIssuedInstType_0::FloatDiv            0      0.00%     79.81% # Number of instructions issued per FU type, per thread (Count)
system.cpu1.statIssuedInstType_0::FloatMisc            0      0.00%     79.81% # Number of instructions issued per FU type, per thread (Count)
system.cpu1.statIssuedInstType_0::FloatSqrt            0      0.00%     79.81% # Number of instructions issued per FU type, per thread (Count)
system.cpu1.statIssuedInstType_0::SimdAdd         8184      0.18%     79.99% # Number of instructions issued per FU type, per thread (Count)
system.cpu1.statIssuedInstType_0::SimdAddAcc            0      0.00%     79.99% # Number of instructions issued per FU type, per thread (Count)
system.cpu1.statIssuedInstType_0::SimdAlu        16722      0.37%     80.36% # Number of instructions issued per FU type, per thread (Count)
system.cpu1.statIssuedInstType_0::SimdCmp            0      0.00%     80.36% # Number of instructions issued per FU type, per thread (Count)
system.cpu1.statIssuedInstType_0::SimdCvt        18238      0.41%     80.77% # Number of instructions issued per FU type, per thread (Count)
system.cpu1.statIssuedInstType_0::SimdMisc         8672      0.19%     80.96% # Number of instructions issued per FU type, per thread (Count)
system.cpu1.statIssuedInstType_0::SimdMult            0      0.00%     80.96% # Number of instructions issued per FU type, per thread (Count)
system.cpu1.statIssuedInstType_0::SimdMultAcc            0      0.00%     80.96% # Number of instructions issued per FU type, per thread (Count)
system.cpu1.statIssuedInstType_0::SimdShift         2476      0.06%     81.02% # Number of instructions issued per FU type, per thread (Count)
system.cpu1.statIssuedInstType_0::SimdShiftAcc            0      0.00%     81.02% # Number of instructions issued per FU type, per thread (Count)
system.cpu1.statIssuedInstType_0::SimdDiv            0      0.00%     81.02% # Number of instructions issued per FU type, per thread (Count)
system.cpu1.statIssuedInstType_0::SimdSqrt            0      0.00%     81.02% # Number of instructions issued per FU type, per thread (Count)
system.cpu1.statIssuedInstType_0::SimdFloatAdd            0      0.00%     81.02% # Number of instructions issued per FU type, per thread (Count)
system.cpu1.statIssuedInstType_0::SimdFloatAlu            0      0.00%     81.02% # Number of instructions issued per FU type, per thread (Count)
system.cpu1.statIssuedInstType_0::SimdFloatCmp            0      0.00%     81.02% # Number of instructions issued per FU type, per thread (Count)
system.cpu1.statIssuedInstType_0::SimdFloatCvt            0      0.00%     81.02% # Number of instructions issued per FU type, per thread (Count)
system.cpu1.statIssuedInstType_0::SimdFloatDiv            0      0.00%     81.02% # Number of instructions issued per FU type, per thread (Count)
system.cpu1.statIssuedInstType_0::SimdFloatMisc            0      0.00%     81.02% # Number of instructions issued per FU type, per thread (Count)
system.cpu1.statIssuedInstType_0::SimdFloatMult            0      0.00%     81.02% # Number of instructions issued per FU type, per thread (Count)
system.cpu1.statIssuedInstType_0::SimdFloatMultAcc            0      0.00%     81.02% # Number of instructions issued per FU type, per thread (Count)
system.cpu1.statIssuedInstType_0::SimdFloatSqrt            0      0.00%     81.02% # Number of instructions issued per FU type, per thread (Count)
system.cpu1.statIssuedInstType_0::SimdReduceAdd            0      0.00%     81.02% # Number of instructions issued per FU type, per thread (Count)
system.cpu1.statIssuedInstType_0::SimdReduceAlu            0      0.00%     81.02% # Number of instructions issued per FU type, per thread (Count)
system.cpu1.statIssuedInstType_0::SimdReduceCmp            0      0.00%     81.02% # Number of instructions issued per FU type, per thread (Count)
system.cpu1.statIssuedInstType_0::SimdFloatReduceAdd            0      0.00%     81.02% # Number of instructions issued per FU type, per thread (Count)
system.cpu1.statIssuedInstType_0::SimdFloatReduceCmp            0      0.00%     81.02% # Number of instructions issued per FU type, per thread (Count)
system.cpu1.statIssuedInstType_0::SimdAes            0      0.00%     81.02% # Number of instructions issued per FU type, per thread (Count)
system.cpu1.statIssuedInstType_0::SimdAesMix            0      0.00%     81.02% # Number of instructions issued per FU type, per thread (Count)
system.cpu1.statIssuedInstType_0::SimdSha1Hash            0      0.00%     81.02% # Number of instructions issued per FU type, per thread (Count)
system.cpu1.statIssuedInstType_0::SimdSha1Hash2            0      0.00%     81.02% # Number of instructions issued per FU type, per thread (Count)
system.cpu1.statIssuedInstType_0::SimdSha256Hash            0      0.00%     81.02% # Number of instructions issued per FU type, per thread (Count)
system.cpu1.statIssuedInstType_0::SimdSha256Hash2            0      0.00%     81.02% # Number of instructions issued per FU type, per thread (Count)
system.cpu1.statIssuedInstType_0::SimdShaSigma2            0      0.00%     81.02% # Number of instructions issued per FU type, per thread (Count)
system.cpu1.statIssuedInstType_0::SimdShaSigma3            0      0.00%     81.02% # Number of instructions issued per FU type, per thread (Count)
system.cpu1.statIssuedInstType_0::SimdPredAlu            0      0.00%     81.02% # Number of instructions issued per FU type, per thread (Count)
system.cpu1.statIssuedInstType_0::MemRead       610400     13.59%     94.61% # Number of instructions issued per FU type, per thread (Count)
system.cpu1.statIssuedInstType_0::MemWrite       191215      4.26%     98.86% # Number of instructions issued per FU type, per thread (Count)
system.cpu1.statIssuedInstType_0::FloatMemRead        33143      0.74%     99.60% # Number of instructions issued per FU type, per thread (Count)
system.cpu1.statIssuedInstType_0::FloatMemWrite        17928      0.40%    100.00% # Number of instructions issued per FU type, per thread (Count)
system.cpu1.statIssuedInstType_0::IprAccess            0      0.00%    100.00% # Number of instructions issued per FU type, per thread (Count)
system.cpu1.statIssuedInstType_0::InstPrefetch            0      0.00%    100.00% # Number of instructions issued per FU type, per thread (Count)
system.cpu1.statIssuedInstType_0::total       4491428                       # Number of instructions issued per FU type, per thread (Count)
system.cpu1.issueRate                        0.439782                       # Inst issue rate ((Count/Cycle))
system.cpu1.fuBusy                              64745                       # FU busy when requested (Count)
system.cpu1.fuBusyRate                       0.014415                       # FU busy rate (busy events/executed inst) ((Count/Count))
system.cpu1.intInstQueueReads                17888515                       # Number of integer instruction queue reads (Count)
system.cpu1.intInstQueueWrites                5729973                       # Number of integer instruction queue writes (Count)
system.cpu1.intInstQueueWakeupAccesses        4322862                       # Number of integer instruction queue wakeup accesses (Count)
system.cpu1.fpInstQueueReads                   227432                       # Number of floating instruction queue reads (Count)
system.cpu1.fpInstQueueWrites                  172689                       # Number of floating instruction queue writes (Count)
system.cpu1.fpInstQueueWakeupAccesses          108747                       # Number of floating instruction queue wakeup accesses (Count)
system.cpu1.vecInstQueueReads                       0                       # Number of vector instruction queue reads (Count)
system.cpu1.vecInstQueueWrites                      0                       # Number of vector instruction queue writes (Count)
system.cpu1.vecInstQueueWakeupAccesses              0                       # Number of vector instruction queue wakeup accesses (Count)
system.cpu1.intAluAccesses                    4423119                       # Number of integer alu accesses (Count)
system.cpu1.fpAluAccesses                      114690                       # Number of floating point alu accesses (Count)
system.cpu1.vecAluAccesses                          0                       # Number of vector alu accesses (Count)
system.cpu1.numInsts                          4461035                       # Number of executed instructions (Count)
system.cpu1.numLoadInsts                       635879                       # Number of load instructions executed (Count)
system.cpu1.numSquashedInsts                    30393                       # Number of squashed instructions skipped in execute (Count)
system.cpu1.numSwp                                  0                       # Number of swp insts executed (Count)
system.cpu1.numNop                                  0                       # Number of nop insts executed (Count)
system.cpu1.numRefs                            842995                       # Number of memory reference insts executed (Count)
system.cpu1.numBranches                        398668                       # Number of branches executed (Count)
[...]
system.ruby.network.ext_out_link_utilization      4192489                       (Unspecified)
system.ruby.network.flit_network_latency |105282571500                       |208457553500                       | 28800401500                       (Unspecified)
system.ruby.network.flit_queueing_latency |  2127208500                       |  1945273500                       |   147873000                       (Unspecified)
system.ruby.network.flits_injected       |      995075     23.73%     23.73% |     2901669     69.21%     92.95% |      295747      7.05%    100.00% (Unspecified)
system.ruby.network.flits_injected::total      4192491                       (Unspecified)
system.ruby.network.flits_received       |      995074     23.73%     23.73% |     2901669     69.21%     92.95% |      295746      7.05%    100.00% (Unspecified)
system.ruby.network.flits_received::total      4192489                       (Unspecified)
system.ruby.network.int_link_utilization     12718357                       (Unspecified)
system.ruby.network.packet_network_latency | 78863136000                       | 68906311500                       | 28800401500                       (Unspecified)
system.ruby.network.packet_queueing_latency |  1744672500                       |   518573500                       |   147873000                       (Unspecified)
system.ruby.network.packets_injected     |      810459     42.28%     42.28% |      810457     42.28%     84.57% |      295747     15.43%    100.00% (Unspecified)
system.ruby.network.packets_injected::total      1916663                       (Unspecified)
system.ruby.network.packets_received     |      810458     42.28%     42.28% |      810457     42.28%     84.57% |      295746     15.43%    100.00% (Unspecified)
system.ruby.network.packets_received::total      1916661                       (Unspecified)
system.ruby.network.routers00.Var_1                 0                       (Unspecified)
system.ruby.network.routers00.Var_2                 0                       (Unspecified)
system.ruby.network.routers00.Var_3                 0                       (Unspecified)
system.ruby.network.routers00.all_counts            0                       (Unspecified)
system.ruby.network.routers00.buffer_reads       750765                       (Unspecified)
system.ruby.network.routers00.buffer_writes       750765                       (Unspecified)
system.ruby.network.routers00.crossbar_activity       750765                       (Unspecified)
system.ruby.network.routers00.detour_counts        53421                       (Unspecified)
system.ruby.network.routers00.regular_var            0                       (Unspecified)
system.ruby.network.routers00.risk_counts            0                       (Unspecified)
system.ruby.network.routers00.sw_input_arbiter_activity       756490                       (Unspecified)
system.ruby.network.routers00.sw_output_arbiter_activity       750765                       (Unspecified)
system.ruby.network.routers01.Var_1                 0                       (Unspecified)
system.ruby.network.routers01.Var_2                 0                       (Unspecified)
system.ruby.network.routers01.Var_3                 0                       (Unspecified)
system.ruby.network.routers01.all_counts            0                       (Unspecified)
system.ruby.network.routers01.buffer_reads      1080149                       (Unspecified)
system.ruby.network.routers01.buffer_writes      1080149                       (Unspecified)
system.ruby.network.routers01.crossbar_activity      1080149                       (Unspecified)
system.ruby.network.routers01.detour_counts        53526                       (Unspecified)
system.ruby.network.routers01.regular_var            0                       (Unspecified)
system.ruby.network.routers01.risk_counts            0                       (Unspecified)
system.ruby.network.routers01.sw_input_arbiter_activity      1092680                       (Unspecified)
system.ruby.network.routers01.sw_output_arbiter_activity      1080149                       (Unspecified)
system.ruby.network.routers02.Var_1                 0                       (Unspecified)
system.ruby.network.routers02.Var_2                 0                       (Unspecified)
system.ruby.network.routers02.Var_3                 0                       (Unspecified)
system.ruby.network.routers02.all_counts            0                       (Unspecified)
system.ruby.network.routers02.buffer_reads      1081055                       (Unspecified)
system.ruby.network.routers02.buffer_writes      1081055                       (Unspecified)
system.ruby.network.routers02.crossbar_activity      1081055                       (Unspecified)
system.ruby.network.routers02.detour_counts        53455                       (Unspecified)
system.ruby.network.routers02.regular_var            0                       (Unspecified)
system.ruby.network.routers02.risk_counts            0                       (Unspecified)
system.ruby.network.routers02.sw_input_arbiter_activity      1093800                       (Unspecified)
system.ruby.network.routers02.sw_output_arbiter_activity      1081055                       (Unspecified)
system.ruby.network.routers03.Var_1                 0                       (Unspecified)
system.ruby.network.routers03.Var_2                 0                       (Unspecified)
system.ruby.network.routers03.Var_3                 0                       (Unspecified)
system.ruby.network.routers03.all_counts            0                       (Unspecified)
system.ruby.network.routers03.buffer_reads       741451                       (Unspecified)
system.ruby.network.routers03.buffer_writes       741451                       (Unspecified)
system.ruby.network.routers03.crossbar_activity       741451                       (Unspecified)
system.ruby.network.routers03.detour_counts        53580                       (Unspecified)
system.ruby.network.routers03.regular_var            0                       (Unspecified)
system.ruby.network.routers03.risk_counts            0                       (Unspecified)
system.ruby.network.routers03.sw_input_arbiter_activity       747111                       (Unspecified)
system.ruby.network.routers03.sw_output_arbiter_activity       741451                       (Unspecified)
system.ruby.network.routers04.Var_1                 0                       (Unspecified)
system.ruby.network.routers04.Var_2                 0                       (Unspecified)
system.ruby.network.routers04.Var_3                 0                       (Unspecified)
system.ruby.network.routers04.all_counts            0                       (Unspecified)
system.ruby.network.routers04.buffer_reads      1046966                       (Unspecified)
system.ruby.network.routers04.buffer_writes      1046966                       (Unspecified)
system.ruby.network.routers04.crossbar_activity      1046966                       (Unspecified)
system.ruby.network.routers04.detour_counts        53582                       (Unspecified)
system.ruby.network.routers04.regular_var            0                       (Unspecified)
system.ruby.network.routers04.risk_counts            0                       (Unspecified)
system.ruby.network.routers04.sw_input_arbiter_activity      1058457                       (Unspecified)
system.ruby.network.routers04.sw_output_arbiter_activity      1046966                       (Unspecified)
system.ruby.network.routers05.Var_1                 0                       (Unspecified)
system.ruby.network.routers05.Var_2                 0                       (Unspecified)
system.ruby.network.routers05.Var_3                 0                       (Unspecified)
system.ruby.network.routers05.all_counts            0                       (Unspecified)
system.ruby.network.routers05.buffer_reads      1373067                       (Unspecified)
system.ruby.network.routers05.buffer_writes      1373067                       (Unspecified)
system.ruby.network.routers05.crossbar_activity      1373067                       (Unspecified)
system.ruby.network.routers05.detour_counts        53567                       (Unspecified)
system.ruby.network.routers05.regular_var            0                       (Unspecified)
system.ruby.network.routers05.risk_counts            0                       (Unspecified)
system.ruby.network.routers05.sw_input_arbiter_activity      1391305                       (Unspecified)
system.ruby.network.routers05.sw_output_arbiter_activity      1373067                       (Unspecified)
system.ruby.network.routers06.Var_1                 0                       (Unspecified)
system.ruby.network.routers06.Var_2                 0                       (Unspecified)
system.ruby.network.routers06.Var_3                 0                       (Unspecified)
system.ruby.network.routers06.all_counts            0                       (Unspecified)
system.ruby.network.routers06.buffer_reads      1372690                       (Unspecified)
system.ruby.network.routers06.buffer_writes      1372690                       (Unspecified)
system.ruby.network.routers06.crossbar_activity      1372690                       (Unspecified)
system.ruby.network.routers06.detour_counts        53518                       (Unspecified)
system.ruby.network.routers06.regular_var            0                       (Unspecified)
system.ruby.network.routers06.risk_counts            0                       (Unspecified)
system.ruby.network.routers06.sw_input_arbiter_activity      1391455                       (Unspecified)
system.ruby.network.routers06.sw_output_arbiter_activity      1372690                       (Unspecified)
system.ruby.network.routers07.Var_1                 0                       (Unspecified)
system.ruby.network.routers07.Var_2                 0                       (Unspecified)
system.ruby.network.routers07.Var_3                 0                       (Unspecified)
system.ruby.network.routers07.all_counts            0                       (Unspecified)
system.ruby.network.routers07.buffer_reads      1039718                       (Unspecified)
system.ruby.network.routers07.buffer_writes      1039718                       (Unspecified)
system.ruby.network.routers07.crossbar_activity      1039718                       (Unspecified)
system.ruby.network.routers07.detour_counts        53541                       (Unspecified)
system.ruby.network.routers07.regular_var            0                       (Unspecified)
system.ruby.network.routers07.risk_counts            0                       (Unspecified)
system.ruby.network.routers07.sw_input_arbiter_activity      1051334                       (Unspecified)
system.ruby.network.routers07.sw_output_arbiter_activity      1039718                       (Unspecified)
system.ruby.network.routers08.Var_1                 0                       (Unspecified)
system.ruby.network.routers08.Var_2                 0                       (Unspecified)
system.ruby.network.routers08.Var_3                 0                       (Unspecified)
system.ruby.network.routers08.all_counts            0                       (Unspecified)
system.ruby.network.routers08.buffer_reads      1043605                       (Unspecified)
system.ruby.network.routers08.buffer_writes      1043605                       (Unspecified)
system.ruby.network.routers08.crossbar_activity      1043605                       (Unspecified)
system.ruby.network.routers08.detour_counts        53585                       (Unspecified)
system.ruby.network.routers08.regular_var            0                       (Unspecified)
system.ruby.network.routers08.risk_counts            0                       (Unspecified)
system.ruby.network.routers08.sw_input_arbiter_activity      1055083                       (Unspecified)
system.ruby.network.routers08.sw_output_arbiter_activity      1043605                       (Unspecified)
system.ruby.network.routers09.Var_1                 0                       (Unspecified)
system.ruby.network.routers09.Var_2                 0                       (Unspecified)
system.ruby.network.routers09.Var_3                 0                       (Unspecified)
system.ruby.network.routers09.all_counts            0                       (Unspecified)
system.ruby.network.routers09.buffer_reads      1376506                       (Unspecified)
system.ruby.network.routers09.buffer_writes      1376506                       (Unspecified)
system.ruby.network.routers09.crossbar_activity      1376506                       (Unspecified)
system.ruby.network.routers09.detour_counts        53362                       (Unspecified)
system.ruby.network.routers09.regular_var            0                       (Unspecified)
system.ruby.network.routers09.risk_counts            0                       (Unspecified)
system.ruby.network.routers09.sw_input_arbiter_activity      1394635                       (Unspecified)
system.ruby.network.routers09.sw_output_arbiter_activity      1376506                       (Unspecified)
system.ruby.network.routers10.Var_1                 0                       (Unspecified)
system.ruby.network.routers10.Var_2                 0                       (Unspecified)
system.ruby.network.routers10.Var_3                 0                       (Unspecified)
system.ruby.network.routers10.all_counts            0                       (Unspecified)
system.ruby.network.routers10.buffer_reads      1370742                       (Unspecified)
system.ruby.network.routers10.buffer_writes      1370742                       (Unspecified)
system.ruby.network.routers10.crossbar_activity      1370742                       (Unspecified)
system.ruby.network.routers10.detour_counts        53448                       (Unspecified)
system.ruby.network.routers10.regular_var            0                       (Unspecified)
system.ruby.network.routers10.risk_counts            0                       (Unspecified)
system.ruby.network.routers10.sw_input_arbiter_activity      1388702                       (Unspecified)
system.ruby.network.routers10.sw_output_arbiter_activity      1370742                       (Unspecified)
system.ruby.network.routers11.Var_1                 0                       (Unspecified)
system.ruby.network.routers11.Var_2                 0                       (Unspecified)
system.ruby.network.routers11.Var_3                 0                       (Unspecified)
system.ruby.network.routers11.all_counts            0                       (Unspecified)
system.ruby.network.routers11.buffer_reads      1031341                       (Unspecified)
system.ruby.network.routers11.buffer_writes      1031341                       (Unspecified)
system.ruby.network.routers11.crossbar_activity      1031341                       (Unspecified)
system.ruby.network.routers11.detour_counts        53642                       (Unspecified)
system.ruby.network.routers11.regular_var            0                       (Unspecified)
system.ruby.network.routers11.risk_counts            0                       (Unspecified)
system.ruby.network.routers11.sw_input_arbiter_activity      1042298                       (Unspecified)
system.ruby.network.routers11.sw_output_arbiter_activity      1031341                       (Unspecified)
system.ruby.network.routers12.Var_1                 0                       (Unspecified)
system.ruby.network.routers12.Var_2                 0                       (Unspecified)
system.ruby.network.routers12.Var_3                 0                       (Unspecified)
system.ruby.network.routers12.all_counts            0                       (Unspecified)
system.ruby.network.routers12.buffer_reads       738489                       (Unspecified)
system.ruby.network.routers12.buffer_writes       738489                       (Unspecified)
system.ruby.network.routers12.crossbar_activity       738489                       (Unspecified)
system.ruby.network.routers12.detour_counts        53621                       (Unspecified)
system.ruby.network.routers12.regular_var            0                       (Unspecified)
system.ruby.network.routers12.risk_counts            0                       (Unspecified)
system.ruby.network.routers12.sw_input_arbiter_activity       743796                       (Unspecified)
system.ruby.network.routers12.sw_output_arbiter_activity       738489                       (Unspecified)
system.ruby.network.routers13.Var_1                 0                       (Unspecified)
system.ruby.network.routers13.Var_2                 0                       (Unspecified)
system.ruby.network.routers13.Var_3                 0                       (Unspecified)
system.ruby.network.routers13.all_counts            0                       (Unspecified)
system.ruby.network.routers13.buffer_reads      1068467                       (Unspecified)
system.ruby.network.routers13.buffer_writes      1068467                       (Unspecified)
system.ruby.network.routers13.crossbar_activity      1068467                       (Unspecified)
system.ruby.network.routers13.detour_counts        53468                       (Unspecified)
system.ruby.network.routers13.regular_var            0                       (Unspecified)
system.ruby.network.routers13.risk_counts            0                       (Unspecified)
system.ruby.network.routers13.sw_input_arbiter_activity      1080320                       (Unspecified)
system.ruby.network.routers13.sw_output_arbiter_activity      1068467                       (Unspecified)
system.ruby.network.routers14.Var_1                 0                       (Unspecified)
system.ruby.network.routers14.Var_2                 0                       (Unspecified)
system.ruby.network.routers14.Var_3                 0                       (Unspecified)
system.ruby.network.routers14.all_counts            0                       (Unspecified)
system.ruby.network.routers14.buffer_reads      1062476                       (Unspecified)
system.ruby.network.routers14.buffer_writes      1062476                       (Unspecified)
system.ruby.network.routers14.crossbar_activity      1062476                       (Unspecified)
system.ruby.network.routers14.detour_counts        53648                       (Unspecified)
system.ruby.network.routers14.regular_var            0                       (Unspecified)
system.ruby.network.routers14.risk_counts            0                       (Unspecified)
system.ruby.network.routers14.sw_input_arbiter_activity      1074487                       (Unspecified)
system.ruby.network.routers14.sw_output_arbiter_activity      1062476                       (Unspecified)
system.ruby.network.routers15.Var_1                 0                       (Unspecified)
system.ruby.network.routers15.Var_2                 0                       (Unspecified)
system.ruby.network.routers15.Var_3                 0                       (Unspecified)
system.ruby.network.routers15.all_counts            0                       (Unspecified)
system.ruby.network.routers15.buffer_reads       733359                       (Unspecified)
system.ruby.network.routers15.buffer_writes       733359                       (Unspecified)
system.ruby.network.routers15.crossbar_activity       733359                       (Unspecified)
system.ruby.network.routers15.detour_counts        53677                       (Unspecified)
system.ruby.network.routers15.regular_var            0                       (Unspecified)
system.ruby.network.routers15.risk_counts            0                       (Unspecified)
system.ruby.network.routers15.sw_input_arbiter_activity       738787                       (Unspecified)
system.ruby.network.routers15.sw_output_arbiter_activity       733359                       (Unspecified)

---------- End Simulation Statistics   ----------
