
---------- Begin Simulation Statistics ----------
simSeconds                                   0.004963                       # Number of seconds simulated (Second)
simTicks                                   4962714000                       # Number of ticks simulated (Tick)
finalTick                                  4962714000                       # Number of ticks from beginning of simulation (restored from checkpoints and never reset) (Tick)
simFreq                                  1000000000000                       # The number of ticks per simulated second ((Tick/Second))
hostSeconds                                    701.08                       # Real time elapsed on the host (Second)
hostTickRate                                  7078620                       # The number of ticks simulated per host second (ticks/s) ((Tick/Second))
hostMemory                                   11459176                       # Number of bytes of host memory used (Byte)
simInsts                                     35326144                       # Number of instructions simulated (Count)
simOps                                       60919376                       # Number of ops (including micro ops) simulated (Count)
hostInstRate                                    50388                       # Simulator instruction rate (inst/s) ((Count/Second))
hostOpRate                                      86893                       # Simulator op (including micro ops) rate (op/s) ((Count/Second))
system.clk_domain.clock                          1000                       # Clock period in ticks (Tick)
system.cpu0.numCycles                         9818091                       # Number of cpu cycles simulated (Cycle)
system.cpu0.numWorkItemsStarted                     0                       # Number of work items this cpu started (Count)
system.cpu0.numWorkItemsCompleted                   0                       # Number of work items this cpu completed (Count)
system.cpu0.instsAdded                        4853884                       # Number of instructions added to the IQ (excludes non-spec) (Count)
system.cpu0.nonSpecInstsAdded                    1097                       # Number of non-speculative instructions added to the IQ (Count)
system.cpu0.instsIssued                       4491904                       # Number of instructions issued (Count)
system.cpu0.squashedInstsIssued                  3095                       # Number of squashed instructions issued (Count)
system.cpu0.squashedInstsExamined             1047520                       # Number of squashed instructions iterated over during squash; mainly for profiling (Count)
system.cpu0.squashedOperandsExamined          2258426                       # Number of squashed operands that are examined and possibly removed from graph (Count)
system.cpu0.squashedNonSpecRemoved                244                       # Number of squashed non-spec instructions that were removed (Count)
system.cpu0.numIssuedDist::samples            8680032                       # Number of insts issued each cycle (Count)
system.cpu0.numIssuedDist::mean              0.517499                       # Number of insts issued each cycle (Count)
system.cpu0.numIssuedDist::stdev             1.453088                       # Number of insts issued each cycle (Count)
system.cpu0.numIssuedDist::underflows               0      0.00%      0.00% # Number of insts issued each cycle (Count)
system.cpu0.numIssuedDist::0                  7419086     85.47%     85.47% # Number of insts issued each cycle (Count)
system.cpu0.numIssuedDist::1                   200537      2.31%     87.78% # Number of insts issued each cycle (Count)
system.cpu0.numIssuedDist::2                   235118      2.71%     90.49% # Number of insts issued each cycle (Count)
system.cpu0.numIssuedDist::3                   245805      2.83%     93.32% # Number of insts issued each cycle (Count)
system.cpu0.numIssuedDist::4                   195291      2.25%     95.57% # Number of insts issued each cycle (Count)
system.cpu0.numIssuedDist::5                   149558      1.72%     97.30% # Number of insts issued each cycle (Count)
system.cpu0.numIssuedDist::6                   126753      1.46%     98.76% # Number of insts issued each cycle (Count)
system.cpu0.numIssuedDist::7                    68828      0.79%     99.55% # Number of insts issued each cycle (Count)
system.cpu0.numIssuedDist::8                    39056      0.45%    100.00% # Number of insts issued each cycle (Count)
system.cpu0.numIssuedDist::overflows                0      0.00%    100.00% # Number of insts issued each cycle (Count)
system.cpu0.numIssuedDist::min_value                0                       # Number of insts issued each cycle (Count)
system.cpu0.numIssuedDist::max_value                8                       # Number of insts issued each cycle (Count)
system.cpu0.numIssuedDist::total              8680032                       # Number of insts issued each cycle (Count)
system.cpu0.statFuBusy::No_OpClass                  0      0.00%      0.00% # attempts to use FU when none available (Count)
system.cpu0.statFuBusy::IntAlu                  42771     66.09%     66.09% # attempts to use FU when none available (Count)
system.cpu0.statFuBusy::IntMult                     0      0.00%     66.09% # attempts to use FU when none available (Count)
system.cpu0.statFuBusy::IntDiv                      0      0.00%     66.09% # attempts to use FU when none available (Count)
system.cpu0.statFuBusy::FloatAdd                    0      0.00%     66.09% # attempts to use FU when none available (Count)
system.cpu0.statFuBusy::FloatCmp                    0      0.00%     66.09% # attempts to use FU when none available (Count)
system.cpu0.statFuBusy::FloatCvt                    3      0.00%     66.09% # attempts to use FU when none available (Count)
system.cpu0.statFuBusy::FloatMult                   0      0.00%     66.09% # attempts to use FU when none available (Count)
system.cpu0.statFuBusy::FloatMultAcc                0      0.00%     66.09% # attempts to use FU when none available (Count)
system.cpu0.statFuBusy::FloatDiv                    0      0.00%     66.09% # attempts to use FU when none available (Count)
system.cpu0.statFuBusy::FloatMisc                   0      0.00%     66.09% # attempts to use FU when none available (Count)
system.cpu0.statFuBusy::FloatSqrt                   0      0.00%     66.09% # attempts to use FU when none available (Count)
system.cpu0.statFuBusy::SimdAdd                     0      0.00%     66.09% # attempts to use FU when none available (Count)
system.cpu0.statFuBusy::SimdAddAcc                  0      0.00%     66.09% # attempts to use FU when none available (Count)
system.cpu0.statFuBusy::SimdAlu                   123      0.19%     66.28% # attempts to use FU when none available (Count)
system.cpu0.statFuBusy::SimdCmp                     0      0.00%     66.28% # attempts to use FU when none available (Count)
system.cpu0.statFuBusy::SimdCvt                   120      0.19%     66.47% # attempts to use FU when none available (Count)
system.cpu0.statFuBusy::SimdMisc                    1      0.00%     66.47% # attempts to use FU when none available (Count)
system.cpu0.statFuBusy::SimdMult                    0      0.00%     66.47% # attempts to use FU when none available (Count)
system.cpu0.statFuBusy::SimdMultAcc                 0      0.00%     66.47% # attempts to use FU when none available (Count)
system.cpu0.statFuBusy::SimdShift                 135      0.21%     66.68% # attempts to use FU when none available (Count)
system.cpu0.statFuBusy::SimdShiftAcc                0      0.00%     66.68% # attempts to use FU when none available (Count)
system.cpu0.statFuBusy::SimdDiv                     0      0.00%     66.68% # attempts to use FU when none available (Count)
system.cpu0.statFuBusy::SimdSqrt                    0      0.00%     66.68% # attempts to use FU when none available (Count)
system.cpu0.statFuBusy::SimdFloatAdd                0      0.00%     66.68% # attempts to use FU when none available (Count)
system.cpu0.statFuBusy::SimdFloatAlu                0      0.00%     66.68% # attempts to use FU when none available (Count)
system.cpu0.statFuBusy::SimdFloatCmp                0      0.00%     66.68% # attempts to use FU when none available (Count)
system.cpu0.statFuBusy::SimdFloatCvt                0      0.00%     66.68% # attempts to use FU when none available (Count)
system.cpu0.statFuBusy::SimdFloatDiv                0      0.00%     66.68% # attempts to use FU when none available (Count)
system.cpu0.statFuBusy::SimdFloatMisc               0      0.00%     66.68% # attempts to use FU when none available (Count)
system.cpu0.statFuBusy::SimdFloatMult               0      0.00%     66.68% # attempts to use FU when none available (Count)
system.cpu0.statFuBusy::SimdFloatMultAcc            0      0.00%     66.68% # attempts to use FU when none available (Count)
system.cpu0.statFuBusy::SimdFloatSqrt               0      0.00%     66.68% # attempts to use FU when none available (Count)
system.cpu0.statFuBusy::SimdReduceAdd               0      0.00%     66.68% # attempts to use FU when none available (Count)
system.cpu0.statFuBusy::SimdReduceAlu               0      0.00%     66.68% # attempts to use FU when none available (Count)
system.cpu0.statFuBusy::SimdReduceCmp               0      0.00%     66.68% # attempts to use FU when none available (Count)
system.cpu0.statFuBusy::SimdFloatReduceAdd            0      0.00%     66.68% # attempts to use FU when none available (Count)
system.cpu0.statFuBusy::SimdFloatReduceCmp            0      0.00%     66.68% # attempts to use FU when none available (Count)
system.cpu0.statFuBusy::SimdAes                     0      0.00%     66.68% # attempts to use FU when none available (Count)
system.cpu0.statFuBusy::SimdAesMix                  0      0.00%     66.68% # attempts to use FU when none available (Count)
system.cpu0.statFuBusy::SimdSha1Hash                0      0.00%     66.68% # attempts to use FU when none available (Count)
system.cpu0.statFuBusy::SimdSha1Hash2               0      0.00%     66.68% # attempts to use FU when none available (Count)
system.cpu0.statFuBusy::SimdSha256Hash              0      0.00%     66.68% # attempts to use FU when none available (Count)
system.cpu0.statFuBusy::SimdSha256Hash2             0      0.00%     66.68% # attempts to use FU when none available (Count)
system.cpu0.statFuBusy::SimdShaSigma2               0      0.00%     66.68% # attempts to use FU when none available (Count)
system.cpu0.statFuBusy::SimdShaSigma3               0      0.00%     66.68% # attempts to use FU when none available (Count)
system.cpu0.statFuBusy::SimdPredAlu                 0      0.00%     66.68% # attempts to use FU when none available (Count)
system.cpu0.statFuBusy::MemRead                 12024     18.58%     85.25% # attempts to use FU when none available (Count)
system.cpu0.statFuBusy::MemWrite                 7701     11.90%     97.15% # attempts to use FU when none available (Count)
system.cpu0.statFuBusy::FloatMemRead             1405      2.17%     99.32% # attempts to use FU when none available (Count)
system.cpu0.statFuBusy::FloatMemWrite             437      0.68%    100.00% # attempts to use FU when none available (Count)
system.cpu0.statFuBusy::IprAccess                   0      0.00%    100.00% # attempts to use FU when none available (Count)
system.cpu0.statFuBusy::InstPrefetch                0      0.00%    100.00% # attempts to use FU when none available (Count)
system.cpu0.statIssuedInstType_0::No_OpClass        18183      0.40%      0.40% # Number of instructions issued per FU type, per thread (Count)
system.cpu0.statIssuedInstType_0::IntAlu      3522111     78.41%     78.81% # Number of instructions issued per FU type, per thread (Count)
system.cpu0.statIssuedInstType_0::IntMult           35      0.00%     78.82% # Number of instructions issued per FU type, per thread (Count)
system.cpu0.statIssuedInstType_0::IntDiv        38179      0.85%     79.67% # Number of instructions issued per FU type, per thread (Count)
system.cpu0.statIssuedInstType_0::FloatAdd         4309      0.10%     79.76% # Number of instructions issued per FU type, per thread (Count)
system.cpu0.statIssuedInstType_0::FloatCmp            0      0.00%     79.76% # Number of instructions issued per FU type, per thread (Count)
system.cpu0.statIssuedInstType_0::FloatCvt         1688      0.04%     79.80% # Number of instructions issued per FU type, per thread (Count)
system.cpu0.statIssuedInstType_0::FloatMult            0      0.00%     79.80% # Number of instructions issued per FU type, per thread (Count)
system.cpu0.statIssuedInstType_0::FloatMultAcc            0      0.00%     79.80% # Number of instructions issued per FU type, per thread (Count)
system.cpu0.statIssuedInstType_0::FloatDiv            0      0.00%     79.80% # Number of instructions issued per FU type, per thread (Count)
system.cpu0.statIssuedInstType_0::FloatMisc            0      0.00%     79.80% # Number of instructions issued per FU type, per thread (Count)
system.cpu0.statIssuedInstType_0::FloatSqrt            0      0.00%     79.80% # Number of instructions issued per FU type, per thread (Count)
system.cpu0.statIssuedInstType_0::SimdAdd         8198      0.18%     79.98% # Number of instructions issued per FU type, per thread (Count)
system.cpu0.statIssuedInstType_0::SimdAddAcc            0      0.00%     79.98% # Number of instructions issued per FU type, per thread (Count)
system.cpu0.statIssuedInstType_0::SimdAlu        16713      0.37%     80.35% # Number of instructions issued per FU type, per thread (Count)
system.cpu0.statIssuedInstType_0::SimdCmp            0      0.00%     80.35% # Number of instructions issued per FU type, per thread (Count)
system.cpu0.statIssuedInstType_0::SimdCvt        18296      0.41%     80.76% # Number of instructions issued per FU type, per thread (Count)
system.cpu0.statIssuedInstType_0::SimdMisc         8694      0.19%     80.95% # Number of instructions issued per FU type, per thread (Count)
system.cpu0.statIssuedInstType_0::SimdMult            0      0.00%     80.95% # Number of instructions issued per FU type, per thread (Count)
system.cpu0.statIssuedInstType_0::SimdMultAcc            0      0.00%     80.95% # Number of instructions issued per FU type, per thread (Count)
system.cpu0.statIssuedInstType_0::SimdShift         2447      0.05%     81.01% # Number of instructions issued per FU type, per thread (Count)
system.cpu0.statIssuedInstType_0::SimdShiftAcc            0      0.00%     81.01% # Number of instructions issued per FU type, per thread (Count)
system.cpu0.statIssuedInstType_0::SimdDiv            0      0.00%     81.01% # Number of instructions issued per FU type, per thread (Count)
system.cpu0.statIssuedInstType_0::SimdSqrt            0      0.00%     81.01% # Number of instructions issued per FU type, per thread (Count)
system.cpu0.statIssuedInstType_0::SimdFloatAdd            0      0.00%     81.01% # Number of instructions issued per FU type, per thread (Count)
system.cpu0.statIssuedInstType_0::SimdFloatAlu            0      0.00%     81.01% # Number of instructions issued per FU type, per thread (Count)
system.cpu0.statIssuedInstType_0::SimdFloatCmp            0      0.00%     81.01% # Number of instructions issued per FU type, per thread (Count)
system.cpu0.statIssuedInstType_0::SimdFloatCvt            0      0.00%     81.01% # Number of instructions issued per FU type, per thread (Count)
system.cpu0.statIssuedInstType_0::SimdFloatDiv            0      0.00%     81.01% # Number of instructions issued per FU type, per thread (Count)
system.cpu0.statIssuedInstType_0::SimdFloatMisc            0      0.00%     81.01% # Number of instructions issued per FU type, per thread (Count)
system.cpu0.statIssuedInstType_0::SimdFloatMult            0      0.00%     81.01% # Number of instructions issued per FU type, per thread (Count)
system.cpu0.statIssuedInstType_0::SimdFloatMultAcc            0      0.00%     81.01% # Number of instructions issued per FU type, per thread (Count)
system.cpu0.statIssuedInstType_0::SimdFloatSqrt            0      0.00%     81.01% # Number of instructions issued per FU type, per thread (Count)
system.cpu0.statIssuedInstType_0::SimdReduceAdd            0      0.00%     81.01% # Number of instructions issued per FU type, per thread (Count)
system.cpu0.statIssuedInstType_0::SimdReduceAlu            0      0.00%     81.01% # Number of instructions issued per FU type, per thread (Count)
system.cpu0.statIssuedInstType_0::SimdReduceCmp            0      0.00%     81.01% # Number of instructions issued per FU type, per thread (Count)
system.cpu0.statIssuedInstType_0::SimdFloatReduceAdd            0      0.00%     81.01% # Number of instructions issued per FU type, per thread (Count)
system.cpu0.statIssuedInstType_0::SimdFloatReduceCmp            0      0.00%     81.01% # Number of instructions issued per FU type, per thread (Count)
system.cpu0.statIssuedInstType_0::SimdAes            0      0.00%     81.01% # Number of instructions issued per FU type, per thread (Count)
system.cpu0.statIssuedInstType_0::SimdAesMix            0      0.00%     81.01% # Number of instructions issued per FU type, per thread (Count)
system.cpu0.statIssuedInstType_0::SimdSha1Hash            0      0.00%     81.01% # Number of instructions issued per FU type, per thread (Count)
system.cpu0.statIssuedInstType_0::SimdSha1Hash2            0      0.00%     81.01% # Number of instructions issued per FU type, per thread (Count)
system.cpu0.statIssuedInstType_0::SimdSha256Hash            0      0.00%     81.01% # Number of instructions issued per FU type, per thread (Count)
system.cpu0.statIssuedInstType_0::SimdSha256Hash2            0      0.00%     81.01% # Number of instructions issued per FU type, per thread (Count)
system.cpu0.statIssuedInstType_0::SimdShaSigma2            0      0.00%     81.01% # Number of instructions issued per FU type, per thread (Count)
system.cpu0.statIssuedInstType_0::SimdShaSigma3            0      0.00%     81.01% # Number of instructions issued per FU type, per thread (Count)
system.cpu0.statIssuedInstType_0::SimdPredAlu            0      0.00%     81.01% # Number of instructions issued per FU type, per thread (Count)
system.cpu0.statIssuedInstType_0::MemRead       610888     13.60%     94.61% # Number of instructions issued per FU type, per thread (Count)
system.cpu0.statIssuedInstType_0::MemWrite       191068      4.25%     98.86% # Number of instructions issued per FU type, per thread (Count)
system.cpu0.statIssuedInstType_0::FloatMemRead        33193      0.74%     99.60% # Number of instructions issued per FU type, per thread (Count)
system.cpu0.statIssuedInstType_0::FloatMemWrite        17902      0.40%    100.00% # Number of instructions issued per FU type, per thread (Count)
system.cpu0.statIssuedInstType_0::IprAccess            0      0.00%    100.00% # Number of instructions issued per FU type, per thread (Count)
system.cpu0.statIssuedInstType_0::InstPrefetch            0      0.00%    100.00% # Number of instructions issued per FU type, per thread (Count)
system.cpu0.statIssuedInstType_0::total       4491904                       # Number of instructions issued per FU type, per thread (Count)
system.cpu0.issueRate                        0.457513                       # Inst issue rate ((Count/Cycle))
system.cpu0.fuBusy                              64720                       # FU busy when requested (Count)
system.cpu0.fuBusyRate                       0.014408                       # FU busy rate (busy events/executed inst) ((Count/Count))
system.cpu0.intInstQueueReads                17504029                       # Number of integer instruction queue reads (Count)
system.cpu0.intInstQueueWrites                5729970                       # Number of integer instruction queue writes (Count)
system.cpu0.intInstQueueWakeupAccesses        4323002                       # Number of integer instruction queue wakeup accesses (Count)
system.cpu0.fpInstQueueReads                   227626                       # Number of floating instruction queue reads (Count)
system.cpu0.fpInstQueueWrites                  172675                       # Number of floating instruction queue writes (Count)
system.cpu0.fpInstQueueWakeupAccesses          108841                       # Number of floating instruction queue wakeup accesses (Count)
system.cpu0.vecInstQueueReads                       0                       # Number of vector instruction queue reads (Count)
system.cpu0.vecInstQueueWrites                      0                       # Number of vector instruction queue writes (Count)
system.cpu0.vecInstQueueWakeupAccesses              0                       # Number of vector instruction queue wakeup accesses (Count)
system.cpu0.intAluAccesses                    4423661                       # Number of integer alu accesses (Count)
system.cpu0.fpAluAccesses                      114780                       # Number of floating point alu accesses (Count)
system.cpu0.vecAluAccesses                          0                       # Number of vector alu accesses (Count)
system.cpu0.numInsts                          4461456                       # Number of executed instructions (Count)
system.cpu0.numLoadInsts                       636397                       # Number of load instructions executed (Count)
system.cpu0.numSquashedInsts                    30448                       # Number of squashed instructions skipped in execute (Count)
system.cpu0.numSwp                                  0                       # Number of swp insts executed (Count)
system.cpu0.numNop                                  0                       # Number of nop insts executed (Count)
system.cpu0.numRefs                            843351                       # Number of memory reference insts executed (Count)
system.cpu0.numBranches                        398663                       # Number of branches executed (Count)
system.cpu0.numStoreInsts                      206954                       # Number of stores executed (Count)
system.cpu0.numRate                          0.454412                       # Inst execution rate ((Count/Cycle))
system.cpu0.timesIdled                           2380                       # Number of times that the entire CPU went into an idle state and unscheduled itself (Count)
system.cpu0.idleCycles                        1138059                       # Total number of cycles that the CPU has spent unscheduled due to idling (Cycle)
system.cpu0.committedInsts                    2207884                       # Number of Instructions Simulated (Count)
system.cpu0.committedOps                      3807461                       # Number of Ops (including micro ops) Simulated (Count)
system.cpu0.cpi                              4.446833                       # CPI: Cycles Per Instruction ((Cycle/Count))
system.cpu0.totalCpi                         4.446833                       # CPI: Total CPI of All Threads ((Cycle/Count))
system.cpu0.ipc                              0.224879                       # IPC: Instructions Per Cycle ((Count/Cycle))
system.cpu0.totalIpc                         0.224879                       # IPC: Total IPC of All Threads ((Count/Cycle))
system.cpu0.intRegfileReads                   6075764                       # Number of integer regfile reads (Count)
system.cpu0.intRegfileWrites                  3473499                       # Number of integer regfile writes (Count)
system.cpu0.fpRegfileReads                     147306                       # Number of floating regfile reads (Count)
system.cpu0.fpRegfileWrites                     81943                       # Number of floating regfile writes (Count)
system.cpu0.ccRegfileReads                    2527399                       # number of cc regfile reads (Count)
system.cpu0.ccRegfileWrites                   2083116                       # number of cc regfile writes (Count)
system.cpu0.miscRegfileReads                  1685168                       # number of misc regfile reads (Count)
system.cpu0.miscRegfileWrites                     846                       # number of misc regfile writes (Count)
system.cpu0.MemDepUnit__0.insertedLoads        664003                       # Number of loads inserted to the mem dependence unit. (Count)
system.cpu0.MemDepUnit__0.insertedStores       219152                       # Number of stores inserted to the mem dependence unit. (Count)
system.cpu0.MemDepUnit__0.conflictingLoads        18936                       # Number of conflicting loads. (Count)
system.cpu0.MemDepUnit__0.conflictingStores         8798                       # Number of conflicting stores. (Count)
system.cpu0.MemDepUnit__1.insertedLoads             0                       # Number of loads inserted to the mem dependence unit. (Count)
system.cpu0.MemDepUnit__1.insertedStores            0                       # Number of stores inserted to the mem dependence unit. (Count)
system.cpu0.MemDepUnit__1.conflictingLoads            0                       # Number of conflicting loads. (Count)
system.cpu0.MemDepUnit__1.conflictingStores            0                       # Number of conflicting stores. (Count)
system.cpu0.MemDepUnit__2.insertedLoads             0                       # Number of loads inserted to the mem dependence unit. (Count)
system.cpu0.MemDepUnit__2.insertedStores            0                       # Number of stores inserted to the mem dependence unit. (Count)
system.cpu0.MemDepUnit__2.conflictingLoads            0                       # Number of conflicting loads. (Count)
system.cpu0.MemDepUnit__2.conflictingStores            0                       # Number of conflicting stores. (Count)
system.cpu0.MemDepUnit__3.insertedLoads             0                       # Number of loads inserted to the mem dependence unit. (Count)
system.cpu0.MemDepUnit__3.insertedStores            0                       # Number of stores inserted to the mem dependence unit. (Count)
system.cpu0.MemDepUnit__3.conflictingLoads            0                       # Number of conflicting loads. (Count)
system.cpu0.MemDepUnit__3.conflictingStores            0                       # Number of conflicting stores. (Count)
system.cpu0.branchPred.lookups                 515233                       # Number of BP lookups (Count)
system.cpu0.branchPred.condPredicted           456819                       # Number of conditional branches predicted (Count)
system.cpu0.branchPred.condIncorrect            17148                       # Number of conditional branches incorrect (Count)
system.cpu0.branchPred.BTBLookups              273256                       # Number of BTB lookups (Count)
system.cpu0.branchPred.BTBUpdates                8668                       # Number of BTB updates (Count)
system.cpu0.branchPred.BTBHits                 269185                       # Number of BTB hits (Count)
system.cpu0.branchPred.BTBHitRatio           0.985102                       # BTB Hit Ratio (Ratio)
system.cpu0.branchPred.RASUsed                  13421                       # Number of times the RAS was used to get a target. (Count)
system.cpu0.branchPred.RASIncorrect                 8                       # Number of incorrect RAS predictions. (Count)
system.cpu0.branchPred.indirectLookups           9898                       # Number of indirect predictor lookups. (Count)
system.cpu0.branchPred.indirectHits              5161                       # Number of indirect target hits. (Count)
system.cpu0.branchPred.indirectMisses            4737                       # Number of indirect misses. (Count)
system.cpu0.branchPred.indirectMispredicted         1182                       # Number of mispredicted indirect branches. (Count)
system.cpu0.commit.commitSquashedInsts        1038513                       # The number of squashed insts skipped by commit (Count)
system.cpu0.commit.commitNonSpecStalls            853                       # The number of times commit has been forced to stall to communicate backwards (Count)
system.cpu0.commit.branchMispredicts            18376                       # The number of times a branch was mispredicted (Count)
system.cpu0.commit.numCommittedDist::samples      8529509                       # Number of insts commited each cycle (Count)
system.cpu0.commit.numCommittedDist::mean     0.446387                       # Number of insts commited each cycle (Count)
system.cpu0.commit.numCommittedDist::stdev     1.518876                       # Number of insts commited each cycle (Count)
system.cpu0.commit.numCommittedDist::underflows            0      0.00%      0.00% # Number of insts commited each cycle (Count)
system.cpu0.commit.numCommittedDist::0        7554026     88.56%     88.56% # Number of insts commited each cycle (Count)
system.cpu0.commit.numCommittedDist::1         231244      2.71%     91.27% # Number of insts commited each cycle (Count)
system.cpu0.commit.numCommittedDist::2         102437      1.20%     92.48% # Number of insts commited each cycle (Count)
system.cpu0.commit.numCommittedDist::3         246723      2.89%     95.37% # Number of insts commited each cycle (Count)
system.cpu0.commit.numCommittedDist::4          45213      0.53%     95.90% # Number of insts commited each cycle (Count)
system.cpu0.commit.numCommittedDist::5          99999      1.17%     97.07% # Number of insts commited each cycle (Count)
system.cpu0.commit.numCommittedDist::6          14901      0.17%     97.25% # Number of insts commited each cycle (Count)
system.cpu0.commit.numCommittedDist::7          18807      0.22%     97.47% # Number of insts commited each cycle (Count)
system.cpu0.commit.numCommittedDist::8         216159      2.53%    100.00% # Number of insts commited each cycle (Count)
system.cpu0.commit.numCommittedDist::overflows            0      0.00%    100.00% # Number of insts commited each cycle (Count)
system.cpu0.commit.numCommittedDist::min_value            0                       # Number of insts commited each cycle (Count)
system.cpu0.commit.numCommittedDist::max_value            8                       # Number of insts commited each cycle (Count)
system.cpu0.commit.numCommittedDist::total      8529509                       # Number of insts commited each cycle (Count)
system.cpu0.commit.instsCommitted             2207884                       # Number of instructions committed (Count)
system.cpu0.commit.opsCommitted               3807461                       # Number of ops (including micro ops) committed (Count)
system.cpu0.commit.memRefs                     707813                       # Number of memory references committed (Count)
system.cpu0.commit.loads                       526475                       # Number of loads committed (Count)
system.cpu0.commit.amos                             0                       # Number of atomic instructions committed (Count)
system.cpu0.commit.membars                          2                       # Number of memory barriers committed (Count)
system.cpu0.commit.branches                    362718                       # Number of branches committed (Count)
system.cpu0.commit.vectorInstructions               0                       # Number of committed Vector instructions. (Count)
system.cpu0.commit.floating                     80373                       # Number of committed floating point instructions. (Count)
system.cpu0.commit.integer                    3748670                       # Number of committed integer instructions. (Count)
system.cpu0.commit.functionCalls                 9592                       # Number of function calls committed. (Count)
system.cpu0.commit.committedInstType_0::No_OpClass        10823      0.28%      0.28% # Class of committed instruction (Count)
system.cpu0.commit.committedInstType_0::IntAlu      3008411     79.01%     79.30% # Class of committed instruction (Count)
system.cpu0.commit.committedInstType_0::IntMult           29      0.00%     79.30% # Class of committed instruction (Count)
system.cpu0.commit.committedInstType_0::IntDiv        35830      0.94%     80.24% # Class of committed instruction (Count)
system.cpu0.commit.committedInstType_0::FloatAdd         3175      0.08%     80.32% # Class of committed instruction (Count)
system.cpu0.commit.committedInstType_0::FloatCmp            0      0.00%     80.32% # Class of committed instruction (Count)
system.cpu0.commit.committedInstType_0::FloatCvt         1504      0.04%     80.36% # Class of committed instruction (Count)
system.cpu0.commit.committedInstType_0::FloatMult            0      0.00%     80.36% # Class of committed instruction (Count)
system.cpu0.commit.committedInstType_0::FloatMultAcc            0      0.00%     80.36% # Class of committed instruction (Count)
system.cpu0.commit.committedInstType_0::FloatDiv            0      0.00%     80.36% # Class of committed instruction (Count)
system.cpu0.commit.committedInstType_0::FloatMisc            0      0.00%     80.36% # Class of committed instruction (Count)
system.cpu0.commit.committedInstType_0::FloatSqrt            0      0.00%     80.36% # Class of committed instruction (Count)
system.cpu0.commit.committedInstType_0::SimdAdd         6610      0.17%     80.54% # Class of committed instruction (Count)
system.cpu0.commit.committedInstType_0::SimdAddAcc            0      0.00%     80.54% # Class of committed instruction (Count)
system.cpu0.commit.committedInstType_0::SimdAlu        11924      0.31%     80.85% # Class of committed instruction (Count)
system.cpu0.commit.committedInstType_0::SimdCmp            0      0.00%     80.85% # Class of committed instruction (Count)
system.cpu0.commit.committedInstType_0::SimdCvt        12922      0.34%     81.19% # Class of committed instruction (Count)
system.cpu0.commit.committedInstType_0::SimdMisc         7067      0.19%     81.37% # Class of committed instruction (Count)
system.cpu0.commit.committedInstType_0::SimdMult            0      0.00%     81.37% # Class of committed instruction (Count)
system.cpu0.commit.committedInstType_0::SimdMultAcc            0      0.00%     81.37% # Class of committed instruction (Count)
system.cpu0.commit.committedInstType_0::SimdShift         1353      0.04%     81.41% # Class of committed instruction (Count)
system.cpu0.commit.committedInstType_0::SimdShiftAcc            0      0.00%     81.41% # Class of committed instruction (Count)
system.cpu0.commit.committedInstType_0::SimdDiv            0      0.00%     81.41% # Class of committed instruction (Count)
system.cpu0.commit.committedInstType_0::SimdSqrt            0      0.00%     81.41% # Class of committed instruction (Count)
system.cpu0.commit.committedInstType_0::SimdFloatAdd            0      0.00%     81.41% # Class of committed instruction (Count)
system.cpu0.commit.committedInstType_0::SimdFloatAlu            0      0.00%     81.41% # Class of committed instruction (Count)
system.cpu0.commit.committedInstType_0::SimdFloatCmp            0      0.00%     81.41% # Class of committed instruction (Count)
system.cpu0.commit.committedInstType_0::SimdFloatCvt            0      0.00%     81.41% # Class of committed instruction (Count)
system.cpu0.commit.committedInstType_0::SimdFloatDiv            0      0.00%     81.41% # Class of committed instruction (Count)
system.cpu0.commit.committedInstType_0::SimdFloatMisc            0      0.00%     81.41% # Class of committed instruction (Count)
system.cpu0.commit.committedInstType_0::SimdFloatMult            0      0.00%     81.41% # Class of committed instruction (Count)
system.cpu0.commit.committedInstType_0::SimdFloatMultAcc            0      0.00%     81.41% # Class of committed instruction (Count)
system.cpu0.commit.committedInstType_0::SimdFloatSqrt            0      0.00%     81.41% # Class of committed instruction (Count)
system.cpu0.commit.committedInstType_0::SimdReduceAdd            0      0.00%     81.41% # Class of committed instruction (Count)
system.cpu0.commit.committedInstType_0::SimdReduceAlu            0      0.00%     81.41% # Class of committed instruction (Count)
system.cpu0.commit.committedInstType_0::SimdReduceCmp            0      0.00%     81.41% # Class of committed instruction (Count)
system.cpu0.commit.committedInstType_0::SimdFloatReduceAdd            0      0.00%     81.41% # Class of committed instruction (Count)
system.cpu0.commit.committedInstType_0::SimdFloatReduceCmp            0      0.00%     81.41% # Class of committed instruction (Count)
system.cpu0.commit.committedInstType_0::SimdAes            0      0.00%     81.41% # Class of committed instruction (Count)
system.cpu0.commit.committedInstType_0::SimdAesMix            0      0.00%     81.41% # Class of committed instruction (Count)
system.cpu0.commit.committedInstType_0::SimdSha1Hash            0      0.00%     81.41% # Class of committed instruction (Count)
system.cpu0.commit.committedInstType_0::SimdSha1Hash2            0      0.00%     81.41% # Class of committed instruction (Count)
system.cpu0.commit.committedInstType_0::SimdSha256Hash            0      0.00%     81.41% # Class of committed instruction (Count)
system.cpu0.commit.committedInstType_0::SimdSha256Hash2            0      0.00%     81.41% # Class of committed instruction (Count)
system.cpu0.commit.committedInstType_0::SimdShaSigma2            0      0.00%     81.41% # Class of committed instruction (Count)
system.cpu0.commit.committedInstType_0::SimdShaSigma3            0      0.00%     81.41% # Class of committed instruction (Count)
system.cpu0.commit.committedInstType_0::SimdPredAlu            0      0.00%     81.41% # Class of committed instruction (Count)
system.cpu0.commit.committedInstType_0::MemRead       505440     13.27%     94.68% # Class of committed instruction (Count)
system.cpu0.commit.committedInstType_0::MemWrite       167424      4.40%     99.08% # Class of committed instruction (Count)
system.cpu0.commit.committedInstType_0::FloatMemRead        21035      0.55%     99.63% # Class of committed instruction (Count)
system.cpu0.commit.committedInstType_0::FloatMemWrite        13914      0.37%    100.00% # Class of committed instruction (Count)
system.cpu0.commit.committedInstType_0::IprAccess            0      0.00%    100.00% # Class of committed instruction (Count)
system.cpu0.commit.committedInstType_0::InstPrefetch            0      0.00%    100.00% # Class of committed instruction (Count)
system.cpu0.commit.committedInstType_0::total      3807461                       # Class of committed instruction (Count)
system.cpu0.commit.commitEligibleSamples       216159                       # number cycles where commit BW limit reached (Cycle)
system.cpu0.decode.idleCycles                  468131                       # Number of cycles decode is idle (Cycle)
system.cpu0.decode.blockedCycles              7473805                       # Number of cycles decode is blocked (Cycle)
system.cpu0.decode.runCycles                   517880                       # Number of cycles decode is running (Cycle)
system.cpu0.decode.unblockCycles               201121                       # Number of cycles decode is unblocking (Cycle)
system.cpu0.decode.squashCycles                 19095                       # Number of cycles decode is squashing (Cycle)
system.cpu0.decode.branchResolved              255133                       # Number of times decode resolved a branch (Count)
system.cpu0.decode.branchMispred                 1202                       # Number of times decode detected a branch misprediction (Count)
system.cpu0.decode.decodedInsts               5039475                       # Number of instructions handled by decode (Count)
system.cpu0.decode.squashedInsts                 5646                       # Number of squashed instructions handled by decode (Count)
system.cpu0.fetch.icacheStallCycles            455565                       # Number of cycles fetch is stalled on an Icache miss (Cycle)
system.cpu0.fetch.insts                       3051190                       # Number of instructions fetch has processed (Count)
system.cpu0.fetch.branches                     515233                       # Number of branches that fetch encountered (Count)
system.cpu0.fetch.predictedBranches            287767                       # Number of branches that fetch has predicted taken (Count)
system.cpu0.fetch.cycles                      7966602                       # Number of cycles fetch has run and was not squashing or blocked (Cycle)
system.cpu0.fetch.squashCycles                  40546                       # Number of cycles fetch has spent squashing (Cycle)
system.cpu0.fetch.miscStallCycles               16190                       # Number of cycles fetch has spent waiting on interrupts, or bad addresses, or out of MSHRs (Cycle)
system.cpu0.fetch.pendingTrapStallCycles        15913                       # Number of stall cycles due to pending traps (Cycle)
system.cpu0.fetch.icacheWaitRetryStallCycles       205489                       # Number of stall cycles due to full MSHR (Cycle)
system.cpu0.fetch.cacheLines                   263937                       # Number of cache lines fetched (Count)
system.cpu0.fetch.icacheSquashes                 4704                       # Number of outstanding Icache misses that were squashed (Count)
system.cpu0.fetch.nisnDist::samples           8680032                       # Number of instructions fetched each cycle (Total) (Count)
system.cpu0.fetch.nisnDist::mean             0.616066                       # Number of instructions fetched each cycle (Total) (Count)
system.cpu0.fetch.nisnDist::stdev            1.975203                       # Number of instructions fetched each cycle (Total) (Count)
system.cpu0.fetch.nisnDist::underflows              0      0.00%      0.00% # Number of instructions fetched each cycle (Total) (Count)
system.cpu0.fetch.nisnDist::0                 7796071     89.82%     89.82% # Number of instructions fetched each cycle (Total) (Count)
system.cpu0.fetch.nisnDist::1                   43410      0.50%     90.32% # Number of instructions fetched each cycle (Total) (Count)
system.cpu0.fetch.nisnDist::2                   39510      0.46%     90.77% # Number of instructions fetched each cycle (Total) (Count)
system.cpu0.fetch.nisnDist::3                   67255      0.77%     91.55% # Number of instructions fetched each cycle (Total) (Count)
system.cpu0.fetch.nisnDist::4                  138941      1.60%     93.15% # Number of instructions fetched each cycle (Total) (Count)
system.cpu0.fetch.nisnDist::5                   60243      0.69%     93.84% # Number of instructions fetched each cycle (Total) (Count)
system.cpu0.fetch.nisnDist::6                   33120      0.38%     94.22% # Number of instructions fetched each cycle (Total) (Count)
system.cpu0.fetch.nisnDist::7                   44275      0.51%     94.73% # Number of instructions fetched each cycle (Total) (Count)
system.cpu0.fetch.nisnDist::8                  457207      5.27%    100.00% # Number of instructions fetched each cycle (Total) (Count)
system.cpu0.fetch.nisnDist::overflows               0      0.00%    100.00% # Number of instructions fetched each cycle (Total) (Count)
system.cpu0.fetch.nisnDist::min_value               0                       # Number of instructions fetched each cycle (Total) (Count)
system.cpu0.fetch.nisnDist::max_value               8                       # Number of instructions fetched each cycle (Total) (Count)
system.cpu0.fetch.nisnDist::total             8680032                       # Number of instructions fetched each cycle (Total) (Count)
system.cpu0.fetch.branchRate                 0.052478                       # Number of branch fetches per cycle (Ratio)
system.cpu0.fetch.rate                       0.310772                       # Number of inst fetches per cycle ((Count/Cycle))
system.cpu0.iew.idleCycles                          0                       # Number of cycles IEW is idle (Cycle)
system.cpu0.iew.squashCycles                    19095                       # Number of cycles IEW is squashing (Cycle)
system.cpu0.iew.blockCycles                   4913850                       # Number of cycles IEW is blocking (Cycle)
system.cpu0.iew.unblockCycles                  152956                       # Number of cycles IEW is unblocking (Cycle)
system.cpu0.iew.dispatchedInsts               4854981                       # Number of instructions dispatched to IQ (Count)
system.cpu0.iew.dispSquashedInsts                1082                       # Number of squashed instructions skipped by dispatch (Count)
system.cpu0.iew.dispLoadInsts                  664003                       # Number of dispatched load instructions (Count)
system.cpu0.iew.dispStoreInsts                 219152                       # Number of dispatched store instructions (Count)
system.cpu0.iew.dispNonSpecInsts                  899                       # Number of dispatched non-speculative instructions (Count)
system.cpu0.iew.iqFullEvents                     7287                       # Number of times the IQ has become full, causing a stall (Count)
system.cpu0.iew.lsqFullEvents                  140468                       # Number of times the LSQ has become full, causing a stall (Count)
system.cpu0.iew.memOrderViolationEvents           152                       # Number of memory order violations (Count)
system.cpu0.iew.predictedTakenIncorrect          7944                       # Number of branches that were predicted taken incorrectly (Count)
system.cpu0.iew.predictedNotTakenIncorrect        12651                       # Number of branches that were predicted not taken incorrectly (Count)
system.cpu0.iew.branchMispredicts               20595                       # Number of branch mispredicts detected at execute (Count)
system.cpu0.iew.instsToCommit                 4443656                       # Cumulative count of insts sent to commit (Count)
system.cpu0.iew.writebackCount                4431843                       # Cumulative count of insts written-back (Count)
system.cpu0.iew.producerInst                  3578787                       # Number of instructions producing a value (Count)
system.cpu0.iew.consumerInst                  6599204                       # Number of instructions consuming a value (Count)
system.cpu0.iew.wbRate                       0.451396                       # Insts written-back per cycle ((Count/Cycle))
system.cpu0.iew.wbFanout                     0.542306                       # Average fanout of values written-back ((Count/Count))
system.cpu0.interrupts.clk_domain.clock          8000                       # Clock period in ticks (Tick)
system.cpu0.lsq0.forwLoads                      58962                       # Number of loads that had data forwarded from stores (Count)
system.cpu0.lsq0.squashedLoads                 137528                       # Number of loads squashed (Count)
system.cpu0.lsq0.ignoredResponses                  99                       # Number of memory responses ignored because the instruction is squashed (Count)
system.cpu0.lsq0.memOrderViolation                152                       # Number of memory ordering violations (Count)
system.cpu0.lsq0.squashedStores                 37814                       # Number of stores squashed (Count)
system.cpu0.lsq0.rescheduledLoads                  14                       # Number of loads that were rescheduled (Count)
system.cpu0.lsq0.blockedByCache                  2151                       # Number of times an access to memory failed due to the cache being blocked (Count)
system.cpu0.lsq0.loadToUse::samples            526397                       # Distribution of cycle latency between the first time a load is issued and its completion (Unspecified)
system.cpu0.lsq0.loadToUse::mean            61.057692                       # Distribution of cycle latency between the first time a load is issued and its completion (Unspecified)
system.cpu0.lsq0.loadToUse::stdev          208.383606                       # Distribution of cycle latency between the first time a load is issued and its completion (Unspecified)
system.cpu0.lsq0.loadToUse::0-9                480989     91.37%     91.37% # Distribution of cycle latency between the first time a load is issued and its completion (Unspecified)
system.cpu0.lsq0.loadToUse::10-19                  65      0.01%     91.39% # Distribution of cycle latency between the first time a load is issued and its completion (Unspecified)
system.cpu0.lsq0.loadToUse::20-29                  50      0.01%     91.40% # Distribution of cycle latency between the first time a load is issued and its completion (Unspecified)
system.cpu0.lsq0.loadToUse::30-39                  83      0.02%     91.41% # Distribution of cycle latency between the first time a load is issued and its completion (Unspecified)
system.cpu0.lsq0.loadToUse::40-49                  74      0.01%     91.43% # Distribution of cycle latency between the first time a load is issued and its completion (Unspecified)
system.cpu0.lsq0.loadToUse::50-59                 171      0.03%     91.46% # Distribution of cycle latency between the first time a load is issued and its completion (Unspecified)
system.cpu0.lsq0.loadToUse::60-69                 134      0.03%     91.48% # Distribution of cycle latency between the first time a load is issued and its completion (Unspecified)
system.cpu0.lsq0.loadToUse::70-79                 100      0.02%     91.50% # Distribution of cycle latency between the first time a load is issued and its completion (Unspecified)
system.cpu0.lsq0.loadToUse::80-89                  63      0.01%     91.51% # Distribution of cycle latency between the first time a load is issued and its completion (Unspecified)
system.cpu0.lsq0.loadToUse::90-99                  63      0.01%     91.53% # Distribution of cycle latency between the first time a load is issued and its completion (Unspecified)
system.cpu0.lsq0.loadToUse::100-109                62      0.01%     91.54% # Distribution of cycle latency between the first time a load is issued and its completion (Unspecified)
system.cpu0.lsq0.loadToUse::110-119                72      0.01%     91.55% # Distribution of cycle latency between the first time a load is issued and its completion (Unspecified)
system.cpu0.lsq0.loadToUse::120-129                60      0.01%     91.56% # Distribution of cycle latency between the first time a load is issued and its completion (Unspecified)
system.cpu0.lsq0.loadToUse::130-139                46      0.01%     91.57% # Distribution of cycle latency between the first time a load is issued and its completion (Unspecified)
system.cpu0.lsq0.loadToUse::140-149                63      0.01%     91.58% # Distribution of cycle latency between the first time a load is issued and its completion (Unspecified)
system.cpu0.lsq0.loadToUse::150-159                79      0.02%     91.60% # Distribution of cycle latency between the first time a load is issued and its completion (Unspecified)
system.cpu0.lsq0.loadToUse::160-169               109      0.02%     91.62% # Distribution of cycle latency between the first time a load is issued and its completion (Unspecified)
system.cpu0.lsq0.loadToUse::170-179               148      0.03%     91.65% # Distribution of cycle latency between the first time a load is issued and its completion (Unspecified)
system.cpu0.lsq0.loadToUse::180-189               571      0.11%     91.76% # Distribution of cycle latency between the first time a load is issued and its completion (Unspecified)
system.cpu0.lsq0.loadToUse::190-199                57      0.01%     91.77% # Distribution of cycle latency between the first time a load is issued and its completion (Unspecified)
system.cpu0.lsq0.loadToUse::200-209                56      0.01%     91.78% # Distribution of cycle latency between the first time a load is issued and its completion (Unspecified)
system.cpu0.lsq0.loadToUse::210-219                82      0.02%     91.79% # Distribution of cycle latency between the first time a load is issued and its completion (Unspecified)
system.cpu0.lsq0.loadToUse::220-229               112      0.02%     91.81% # Distribution of cycle latency between the first time a load is issued and its completion (Unspecified)
system.cpu0.lsq0.loadToUse::230-239               182      0.03%     91.85% # Distribution of cycle latency between the first time a load is issued and its completion (Unspecified)
system.cpu0.lsq0.loadToUse::240-249              1076      0.20%     92.05% # Distribution of cycle latency between the first time a load is issued and its completion (Unspecified)
system.cpu0.lsq0.loadToUse::250-259                41      0.01%     92.06% # Distribution of cycle latency between the first time a load is issued and its completion (Unspecified)
system.cpu0.lsq0.loadToUse::260-269                62      0.01%     92.07% # Distribution of cycle latency between the first time a load is issued and its completion (Unspecified)
system.cpu0.lsq0.loadToUse::270-279                70      0.01%     92.09% # Distribution of cycle latency between the first time a load is issued and its completion (Unspecified)
system.cpu0.lsq0.loadToUse::280-289               184      0.03%     92.12% # Distribution of cycle latency between the first time a load is issued and its completion (Unspecified)
system.cpu0.lsq0.loadToUse::290-299               260      0.05%     92.17% # Distribution of cycle latency between the first time a load is issued and its completion (Unspecified)
system.cpu0.lsq0.loadToUse::overflows           41213      7.83%    100.00% # Distribution of cycle latency between the first time a load is issued and its completion (Unspecified)
system.cpu0.lsq0.loadToUse::min_value               2                       # Distribution of cycle latency between the first time a load is issued and its completion (Unspecified)
system.cpu0.lsq0.loadToUse::max_value            2627                       # Distribution of cycle latency between the first time a load is issued and its completion (Unspecified)
system.cpu0.lsq0.loadToUse::total              526397                       # Distribution of cycle latency between the first time a load is issued and its completion (Unspecified)
system.cpu0.mmu.dtb.rdAccesses                 630592                       # TLB accesses on read requests (Count)
system.cpu0.mmu.dtb.wrAccesses                 206967                       # TLB accesses on write requests (Count)
system.cpu0.mmu.dtb.rdMisses                     3152                       # TLB misses on read requests (Count)
system.cpu0.mmu.dtb.wrMisses                      431                       # TLB misses on write requests (Count)
system.cpu0.mmu.dtb.walker.power_state.pwrStateResidencyTicks::UNDEFINED   4962714000                       # Cumulative time (in ticks) in various power states (Tick)
system.cpu0.mmu.itb.rdAccesses                      0                       # TLB accesses on read requests (Count)
system.cpu0.mmu.itb.wrAccesses                 266432                       # TLB accesses on write requests (Count)
system.cpu0.mmu.itb.rdMisses                        0                       # TLB misses on read requests (Count)
system.cpu0.mmu.itb.wrMisses                     3067                       # TLB misses on write requests (Count)
system.cpu0.mmu.itb.walker.power_state.pwrStateResidencyTicks::UNDEFINED   4962714000                       # Cumulative time (in ticks) in various power states (Tick)
system.cpu0.power_state.pwrStateResidencyTicks::ON   4962714000                       # Cumulative time (in ticks) in various power states (Tick)
system.cpu0.rename.squashCycles                 19095                       # Number of cycles rename is squashing (Cycle)
system.cpu0.rename.idleCycles                  544261                       # Number of cycles rename is idle (Cycle)
system.cpu0.rename.blockCycles                6511781                       # Number of cycles rename is blocking (Cycle)
system.cpu0.rename.serializeStallCycles         22779                       # count of cycles rename stalled for serializing inst (Cycle)
system.cpu0.rename.runCycles                   633583                       # Number of cycles rename is running (Cycle)
system.cpu0.rename.unblockCycles               948533                       # Number of cycles rename is unblocking (Cycle)
system.cpu0.rename.renamedInsts               4958703                       # Number of instructions processed by rename (Count)
system.cpu0.rename.ROBFullEvents               100608                       # Number of times rename has blocked due to ROB full (Count)
system.cpu0.rename.IQFullEvents                257105                       # Number of times rename has blocked due to IQ full (Count)
system.cpu0.rename.LQFullEvents                141805                       # Number of times rename has blocked due to LQ full (Count)
system.cpu0.rename.SQFullEvents                493222                       # Number of times rename has blocked due to SQ full (Count)
system.cpu0.rename.fullRegistersEvents           2820                       # Number of times there has been no free registers (Count)
system.cpu0.rename.renamedOperands           10520211                       # Number of destination operands rename has renamed (Count)
system.cpu0.rename.lookups                   18809114                       # Number of register rename lookups that rename has made (Count)
system.cpu0.rename.intLookups                 7004125                       # Number of integer rename lookups (Count)
system.cpu0.rename.fpLookups                   184712                       # Number of floating rename lookups (Count)
system.cpu0.rename.committedMaps              8163333                       # Number of HB maps that are committed (Count)
system.cpu0.rename.undoneMaps                 2356878                       # Number of HB maps that are undone due to squashing (Count)
system.cpu0.rename.serializing                    873                       # count of serializing insts renamed (Count)
system.cpu0.rename.tempSerializing                859                       # count of temporary serializing insts renamed (Count)
system.cpu0.rename.skidInsts                   926899                       # count of insts added to the skid buffer (Count)
system.cpu0.rob.reads                        13151589                       # The number of ROB reads (Count)
system.cpu0.rob.writes                        9842698                       # The number of ROB writes (Count)
system.cpu0.thread_0.numInsts                 2207884                       # Number of Instructions committed (Count)
system.cpu0.thread_0.numOps                   3807461                       # Number of Ops committed (Count)
system.cpu0.thread_0.numMemRefs                     0                       # Number of Memory References (Count)
system.cpu0.workload.numSyscalls                   63                       # Number of system calls (Count)
system.cpu1.numCycles                         9370459                       # Number of cpu cycles simulated (Cycle)
system.cpu1.numWorkItemsStarted                     0                       # Number of work items this cpu started (Count)
system.cpu1.numWorkItemsCompleted                   0                       # Number of work items this cpu completed (Count)
system.cpu1.instsAdded                        4853253                       # Number of instructions added to the IQ (excludes non-spec) (Count)
system.cpu1.nonSpecInstsAdded                    1097                       # Number of non-speculative instructions added to the IQ (Count)
system.cpu1.instsIssued                       4490503                       # Number of instructions issued (Count)
system.cpu1.squashedInstsIssued                  3099                       # Number of squashed instructions issued (Count)
system.cpu1.squashedInstsExamined             1046889                       # Number of squashed instructions iterated over during squash; mainly for profiling (Count)
system.cpu1.squashedOperandsExamined          2260723                       # Number of squashed operands that are examined and possibly removed from graph (Count)
system.cpu1.squashedNonSpecRemoved                244                       # Number of squashed non-spec instructions that were removed (Count)
system.cpu1.numIssuedDist::samples            8321203                       # Number of insts issued each cycle (Count)
system.cpu1.numIssuedDist::mean              0.539646                       # Number of insts issued each cycle (Count)
system.cpu1.numIssuedDist::stdev             1.479913                       # Number of insts issued each cycle (Count)
system.cpu1.numIssuedDist::underflows               0      0.00%      0.00% # Number of insts issued each cycle (Count)
system.cpu1.numIssuedDist::0                  7060870     84.85%     84.85% # Number of insts issued each cycle (Count)
system.cpu1.numIssuedDist::1                   200315      2.41%     87.26% # Number of insts issued each cycle (Count)
system.cpu1.numIssuedDist::2                   234881      2.82%     90.08% # Number of insts issued each cycle (Count)
system.cpu1.numIssuedDist::3                   245795      2.95%     93.04% # Number of insts issued each cycle (Count)
system.cpu1.numIssuedDist::4                   195300      2.35%     95.38% # Number of insts issued each cycle (Count)
system.cpu1.numIssuedDist::5                   149395      1.80%     97.18% # Number of insts issued each cycle (Count)
system.cpu1.numIssuedDist::6                   126736      1.52%     98.70% # Number of insts issued each cycle (Count)
system.cpu1.numIssuedDist::7                    68838      0.83%     99.53% # Number of insts issued each cycle (Count)
system.cpu1.numIssuedDist::8                    39073      0.47%    100.00% # Number of insts issued each cycle (Count)
system.cpu1.numIssuedDist::overflows                0      0.00%    100.00% # Number of insts issued each cycle (Count)
system.cpu1.numIssuedDist::min_value                0                       # Number of insts issued each cycle (Count)
system.cpu1.numIssuedDist::max_value                8                       # Number of insts issued each cycle (Count)
system.cpu1.numIssuedDist::total              8321203                       # Number of insts issued each cycle (Count)
system.cpu1.statFuBusy::No_OpClass                  0      0.00%      0.00% # attempts to use FU when none available (Count)
system.cpu1.statFuBusy::IntAlu                  42838     66.12%     66.12% # attempts to use FU when none available (Count)
system.cpu1.statFuBusy::IntMult                     0      0.00%     66.12% # attempts to use FU when none available (Count)
system.cpu1.statFuBusy::IntDiv                      0      0.00%     66.12% # attempts to use FU when none available (Count)
system.cpu1.statFuBusy::FloatAdd                    0      0.00%     66.12% # attempts to use FU when none available (Count)
system.cpu1.statFuBusy::FloatCmp                    0      0.00%     66.12% # attempts to use FU when none available (Count)
system.cpu1.statFuBusy::FloatCvt                    0      0.00%     66.12% # attempts to use FU when none available (Count)
system.cpu1.statFuBusy::FloatMult                   0      0.00%     66.12% # attempts to use FU when none available (Count)
system.cpu1.statFuBusy::FloatMultAcc                0      0.00%     66.12% # attempts to use FU when none available (Count)
system.cpu1.statFuBusy::FloatDiv                    0      0.00%     66.12% # attempts to use FU when none available (Count)
system.cpu1.statFuBusy::FloatMisc                   0      0.00%     66.12% # attempts to use FU when none available (Count)
system.cpu1.statFuBusy::FloatSqrt                   0      0.00%     66.12% # attempts to use FU when none available (Count)
system.cpu1.statFuBusy::SimdAdd                     0      0.00%     66.12% # attempts to use FU when none available (Count)
system.cpu1.statFuBusy::SimdAddAcc                  0      0.00%     66.12% # attempts to use FU when none available (Count)
system.cpu1.statFuBusy::SimdAlu                   122      0.19%     66.31% # attempts to use FU when none available (Count)
system.cpu1.statFuBusy::SimdCmp                     0      0.00%     66.31% # attempts to use FU when none available (Count)
system.cpu1.statFuBusy::SimdCvt                   119      0.18%     66.49% # attempts to use FU when none available (Count)
system.cpu1.statFuBusy::SimdMisc                    1      0.00%     66.49% # attempts to use FU when none available (Count)
system.cpu1.statFuBusy::SimdMult                    0      0.00%     66.49% # attempts to use FU when none available (Count)
system.cpu1.statFuBusy::SimdMultAcc                 0      0.00%     66.49% # attempts to use FU when none available (Count)
system.cpu1.statFuBusy::SimdShift                 137      0.21%     66.70% # attempts to use FU when none available (Count)
system.cpu1.statFuBusy::SimdShiftAcc                0      0.00%     66.70% # attempts to use FU when none available (Count)
system.cpu1.statFuBusy::SimdDiv                     0      0.00%     66.70% # attempts to use FU when none available (Count)
system.cpu1.statFuBusy::SimdSqrt                    0      0.00%     66.70% # attempts to use FU when none available (Count)
system.cpu1.statFuBusy::SimdFloatAdd                0      0.00%     66.70% # attempts to use FU when none available (Count)
system.cpu1.statFuBusy::SimdFloatAlu                0      0.00%     66.70% # attempts to use FU when none available (Count)
system.cpu1.statFuBusy::SimdFloatCmp                0      0.00%     66.70% # attempts to use FU when none available (Count)
system.cpu1.statFuBusy::SimdFloatCvt                0      0.00%     66.70% # attempts to use FU when none available (Count)
system.cpu1.statFuBusy::SimdFloatDiv                0      0.00%     66.70% # attempts to use FU when none available (Count)
system.cpu1.statFuBusy::SimdFloatMisc               0      0.00%     66.70% # attempts to use FU when none available (Count)
system.cpu1.statFuBusy::SimdFloatMult               0      0.00%     66.70% # attempts to use FU when none available (Count)
system.cpu1.statFuBusy::SimdFloatMultAcc            0      0.00%     66.70% # attempts to use FU when none available (Count)
system.cpu1.statFuBusy::SimdFloatSqrt               0      0.00%     66.70% # attempts to use FU when none available (Count)
system.cpu1.statFuBusy::SimdReduceAdd               0      0.00%     66.70% # attempts to use FU when none available (Count)
system.cpu1.statFuBusy::SimdReduceAlu               0      0.00%     66.70% # attempts to use FU when none available (Count)
system.cpu1.statFuBusy::SimdReduceCmp               0      0.00%     66.70% # attempts to use FU when none available (Count)
system.cpu1.statFuBusy::SimdFloatReduceAdd            0      0.00%     66.70% # attempts to use FU when none available (Count)
system.cpu1.statFuBusy::SimdFloatReduceCmp            0      0.00%     66.70% # attempts to use FU when none available (Count)
system.cpu1.statFuBusy::SimdAes                     0      0.00%     66.70% # attempts to use FU when none available (Count)
system.cpu1.statFuBusy::SimdAesMix                  0      0.00%     66.70% # attempts to use FU when none available (Count)
system.cpu1.statFuBusy::SimdSha1Hash                0      0.00%     66.70% # attempts to use FU when none available (Count)
system.cpu1.statFuBusy::SimdSha1Hash2               0      0.00%     66.70% # attempts to use FU when none available (Count)
system.cpu1.statFuBusy::SimdSha256Hash              0      0.00%     66.70% # attempts to use FU when none available (Count)
system.cpu1.statFuBusy::SimdSha256Hash2             0      0.00%     66.70% # attempts to use FU when none available (Count)
system.cpu1.statFuBusy::SimdShaSigma2               0      0.00%     66.70% # attempts to use FU when none available (Count)
system.cpu1.statFuBusy::SimdShaSigma3               0      0.00%     66.70% # attempts to use FU when none available (Count)
system.cpu1.statFuBusy::SimdPredAlu                 0      0.00%     66.70% # attempts to use FU when none available (Count)
system.cpu1.statFuBusy::MemRead                 11993     18.51%     85.22% # attempts to use FU when none available (Count)
system.cpu1.statFuBusy::MemWrite                 7722     11.92%     97.13% # attempts to use FU when none available (Count)
system.cpu1.statFuBusy::FloatMemRead             1407      2.17%     99.31% # attempts to use FU when none available (Count)
system.cpu1.statFuBusy::FloatMemWrite             450      0.69%    100.00% # attempts to use FU when none available (Count)
system.cpu1.statFuBusy::IprAccess                   0      0.00%    100.00% # attempts to use FU when none available (Count)
system.cpu1.statFuBusy::InstPrefetch                0      0.00%    100.00% # attempts to use FU when none available (Count)
system.cpu1.statIssuedInstType_0::No_OpClass        18119      0.40%      0.40% # Number of instructions issued per FU type, per thread (Count)
system.cpu1.statIssuedInstType_0::IntAlu      3521479     78.42%     78.82% # Number of instructions issued per FU type, per thread (Count)
system.cpu1.statIssuedInstType_0::IntMult           35      0.00%     78.82% # Number of instructions issued per FU type, per thread (Count)
system.cpu1.statIssuedInstType_0::IntDiv        38207      0.85%     79.68% # Number of instructions issued per FU type, per thread (Count)
system.cpu1.statIssuedInstType_0::FloatAdd         4300      0.10%     79.77% # Number of instructions issued per FU type, per thread (Count)
system.cpu1.statIssuedInstType_0::FloatCmp            0      0.00%     79.77% # Number of instructions issued per FU type, per thread (Count)
system.cpu1.statIssuedInstType_0::FloatCvt         1690      0.04%     79.81% # Number of instructions issued per FU type, per thread (Count)
system.cpu1.statIssuedInstType_0::FloatMult            0      0.00%     79.81% # Number of instructions issued per FU type, per thread (Count)
system.cpu1.statIssuedInstType_0::FloatMultAcc            0      0.00%     79.81% # Number of instructions issued per FU type, per thread (Count)
system.cpu1.statIssuedInstType_0::FloatDiv            0      0.00%     79.81% # Number of instructions issued per FU type, per thread (Count)
system.cpu1.statIssuedInstType_0::FloatMisc            0      0.00%     79.81% # Number of instructions issued per FU type, per thread (Count)
system.cpu1.statIssuedInstType_0::FloatSqrt            0      0.00%     79.81% # Number of instructions issued per FU type, per thread (Count)
system.cpu1.statIssuedInstType_0::SimdAdd         8192      0.18%     79.99% # Number of instructions issued per FU type, per thread (Count)
system.cpu1.statIssuedInstType_0::SimdAddAcc            0      0.00%     79.99% # Number of instructions issued per FU type, per thread (Count)
system.cpu1.statIssuedInstType_0::SimdAlu        16715      0.37%     80.36% # Number of instructions issued per FU type, per thread (Count)
system.cpu1.statIssuedInstType_0::SimdCmp            0      0.00%     80.36% # Number of instructions issued per FU type, per thread (Count)
system.cpu1.statIssuedInstType_0::SimdCvt        18248      0.41%     80.77% # Number of instructions issued per FU type, per thread (Count)
system.cpu1.statIssuedInstType_0::SimdMisc         8683      0.19%     80.96% # Number of instructions issued per FU type, per thread (Count)
system.cpu1.statIssuedInstType_0::SimdMult            0      0.00%     80.96% # Number of instructions issued per FU type, per thread (Count)
system.cpu1.statIssuedInstType_0::SimdMultAcc            0      0.00%     80.96% # Number of instructions issued per FU type, per thread (Count)
system.cpu1.statIssuedInstType_0::SimdShift         2444      0.05%     81.02% # Number of instructions issued per FU type, per thread (Count)
system.cpu1.statIssuedInstType_0::SimdShiftAcc            0      0.00%     81.02% # Number of instructions issued per FU type, per thread (Count)
system.cpu1.statIssuedInstType_0::SimdDiv            0      0.00%     81.02% # Number of instructions issued per FU type, per thread (Count)
system.cpu1.statIssuedInstType_0::SimdSqrt            0      0.00%     81.02% # Number of instructions issued per FU type, per thread (Count)
system.cpu1.statIssuedInstType_0::SimdFloatAdd            0      0.00%     81.02% # Number of instructions issued per FU type, per thread (Count)
system.cpu1.statIssuedInstType_0::SimdFloatAlu            0      0.00%     81.02% # Number of instructions issued per FU type, per thread (Count)
system.cpu1.statIssuedInstType_0::SimdFloatCmp            0      0.00%     81.02% # Number of instructions issued per FU type, per thread (Count)
system.cpu1.statIssuedInstType_0::SimdFloatCvt            0      0.00%     81.02% # Number of instructions issued per FU type, per thread (Count)
system.cpu1.statIssuedInstType_0::SimdFloatDiv            0      0.00%     81.02% # Number of instructions issued per FU type, per thread (Count)
system.cpu1.statIssuedInstType_0::SimdFloatMisc            0      0.00%     81.02% # Number of instructions issued per FU type, per thread (Count)
system.cpu1.statIssuedInstType_0::SimdFloatMult            0      0.00%     81.02% # Number of instructions issued per FU type, per thread (Count)
system.cpu1.statIssuedInstType_0::SimdFloatMultAcc            0      0.00%     81.02% # Number of instructions issued per FU type, per thread (Count)
system.cpu1.statIssuedInstType_0::SimdFloatSqrt            0      0.00%     81.02% # Number of instructions issued per FU type, per thread (Count)
system.cpu1.statIssuedInstType_0::SimdReduceAdd            0      0.00%     81.02% # Number of instructions issued per FU type, per thread (Count)
system.cpu1.statIssuedInstType_0::SimdReduceAlu            0      0.00%     81.02% # Number of instructions issued per FU type, per thread (Count)
system.cpu1.statIssuedInstType_0::SimdReduceCmp            0      0.00%     81.02% # Number of instructions issued per FU type, per thread (Count)
system.cpu1.statIssuedInstType_0::SimdFloatReduceAdd            0      0.00%     81.02% # Number of instructions issued per FU type, per thread (Count)
system.cpu1.statIssuedInstType_0::SimdFloatReduceCmp            0      0.00%     81.02% # Number of instructions issued per FU type, per thread (Count)
system.cpu1.statIssuedInstType_0::SimdAes            0      0.00%     81.02% # Number of instructions issued per FU type, per thread (Count)
system.cpu1.statIssuedInstType_0::SimdAesMix            0      0.00%     81.02% # Number of instructions issued per FU type, per thread (Count)
system.cpu1.statIssuedInstType_0::SimdSha1Hash            0      0.00%     81.02% # Number of instructions issued per FU type, per thread (Count)
system.cpu1.statIssuedInstType_0::SimdSha1Hash2            0      0.00%     81.02% # Number of instructions issued per FU type, per thread (Count)
system.cpu1.statIssuedInstType_0::SimdSha256Hash            0      0.00%     81.02% # Number of instructions issued per FU type, per thread (Count)
system.cpu1.statIssuedInstType_0::SimdSha256Hash2            0      0.00%     81.02% # Number of instructions issued per FU type, per thread (Count)
system.cpu1.statIssuedInstType_0::SimdShaSigma2            0      0.00%     81.02% # Number of instructions issued per FU type, per thread (Count)
system.cpu1.statIssuedInstType_0::SimdShaSigma3            0      0.00%     81.02% # Number of instructions issued per FU type, per thread (Count)
system.cpu1.statIssuedInstType_0::SimdPredAlu            0      0.00%     81.02% # Number of instructions issued per FU type, per thread (Count)
system.cpu1.statIssuedInstType_0::MemRead       610273     13.59%     94.61% # Number of instructions issued per FU type, per thread (Count)
system.cpu1.statIssuedInstType_0::MemWrite       191020      4.25%     98.86% # Number of instructions issued per FU type, per thread (Count)
system.cpu1.statIssuedInstType_0::FloatMemRead        33171      0.74%     99.60% # Number of instructions issued per FU type, per thread (Count)
system.cpu1.statIssuedInstType_0::FloatMemWrite        17927      0.40%    100.00% # Number of instructions issued per FU type, per thread (Count)
system.cpu1.statIssuedInstType_0::IprAccess            0      0.00%    100.00% # Number of instructions issued per FU type, per thread (Count)
system.cpu1.statIssuedInstType_0::InstPrefetch            0      0.00%    100.00% # Number of instructions issued per FU type, per thread (Count)
system.cpu1.statIssuedInstType_0::total       4490503                       # Number of instructions issued per FU type, per thread (Count)
system.cpu1.issueRate                        0.479219                       # Inst issue rate ((Count/Cycle))
system.cpu1.fuBusy                              64789                       # FU busy when requested (Count)
system.cpu1.fuBusyRate                       0.014428                       # FU busy rate (busy events/executed inst) ((Count/Count))
system.cpu1.intInstQueueReads                17142603                       # Number of integer instruction queue reads (Count)
system.cpu1.intInstQueueWrites                5728802                       # Number of integer instruction queue writes (Count)
system.cpu1.intInstQueueWakeupAccesses        4322070                       # Number of integer instruction queue wakeup accesses (Count)
system.cpu1.fpInstQueueReads                   227494                       # Number of floating instruction queue reads (Count)
system.cpu1.fpInstQueueWrites                  172581                       # Number of floating instruction queue writes (Count)
system.cpu1.fpInstQueueWakeupAccesses          108757                       # Number of floating instruction queue wakeup accesses (Count)
system.cpu1.vecInstQueueReads                       0                       # Number of vector instruction queue reads (Count)
system.cpu1.vecInstQueueWrites                      0                       # Number of vector instruction queue writes (Count)
system.cpu1.vecInstQueueWakeupAccesses              0                       # Number of vector instruction queue wakeup accesses (Count)
system.cpu1.intAluAccesses                    4422455                       # Number of integer alu accesses (Count)
system.cpu1.fpAluAccesses                      114718                       # Number of floating point alu accesses (Count)
system.cpu1.vecAluAccesses                          0                       # Number of vector alu accesses (Count)
system.cpu1.numInsts                          4460001                       # Number of executed instructions (Count)
system.cpu1.numLoadInsts                       635753                       # Number of load instructions executed (Count)
system.cpu1.numSquashedInsts                    30502                       # Number of squashed instructions skipped in execute (Count)
system.cpu1.numSwp                                  0                       # Number of swp insts executed (Count)
system.cpu1.numNop                                  0                       # Number of nop insts executed (Count)
system.cpu1.numRefs                            842670                       # Number of memory reference insts executed (Count)
system.cpu1.numBranches                        398526                       # Number of branches executed (Count)
[...]
system.ruby.network.ext_out_link_utilization      4192536                       (Unspecified)
system.ruby.network.flit_network_latency | 79862572500                       |208764045000                       | 19508172000                       (Unspecified)
system.ruby.network.flit_queueing_latency |  2131344500                       |  2235886000                       |   147887500                       (Unspecified)
system.ruby.network.flits_injected       |      995071     23.73%     23.73% |     2901691     69.21%     92.95% |      295777      7.05%    100.00% (Unspecified)
system.ruby.network.flits_injected::total      4192539                       (Unspecified)
system.ruby.network.flits_received       |      995070     23.73%     23.73% |     2901691     69.21%     92.95% |      295775      7.05%    100.00% (Unspecified)
system.ruby.network.flits_received::total      4192536                       (Unspecified)
system.ruby.network.int_link_utilization     10409107                       (Unspecified)
system.ruby.network.packet_network_latency | 59364028000                       | 68964940000                       | 19508172000                       (Unspecified)
system.ruby.network.packet_queueing_latency |  1747802500                       |   580736000                       |   147887500                       (Unspecified)
system.ruby.network.packets_injected     |      810487     42.28%     42.28% |      810483     42.28%     84.57% |      295777     15.43%    100.00% (Unspecified)
system.ruby.network.packets_injected::total      1916747                       (Unspecified)
system.ruby.network.packets_received     |      810486     42.28%     42.28% |      810483     42.28%     84.57% |      295775     15.43%    100.00% (Unspecified)
system.ruby.network.packets_received::total      1916744                       (Unspecified)
system.ruby.network.routers00.Var_1                 0                       (Unspecified)
system.ruby.network.routers00.Var_2                 0                       (Unspecified)
system.ruby.network.routers00.Var_3                 0                       (Unspecified)
system.ruby.network.routers00.all_counts            0                       (Unspecified)
system.ruby.network.routers00.buffer_reads       663369                       (Unspecified)
system.ruby.network.routers00.buffer_writes       663369                       (Unspecified)
system.ruby.network.routers00.crossbar_activity       663369                       (Unspecified)
system.ruby.network.routers00.detour_counts            0                       (Unspecified)
system.ruby.network.routers00.regular_var            0                       (Unspecified)
system.ruby.network.routers00.risk_counts            0                       (Unspecified)
system.ruby.network.routers00.sw_input_arbiter_activity       667932                       (Unspecified)
system.ruby.network.routers00.sw_output_arbiter_activity       663369                       (Unspecified)
system.ruby.network.routers01.Var_1                 0                       (Unspecified)
system.ruby.network.routers01.Var_2                 0                       (Unspecified)
system.ruby.network.routers01.Var_3                 0                       (Unspecified)
system.ruby.network.routers01.all_counts            0                       (Unspecified)
system.ruby.network.routers01.buffer_reads       929932                       (Unspecified)
system.ruby.network.routers01.buffer_writes       929932                       (Unspecified)
system.ruby.network.routers01.crossbar_activity       929932                       (Unspecified)
system.ruby.network.routers01.detour_counts            0                       (Unspecified)
system.ruby.network.routers01.regular_var            0                       (Unspecified)
system.ruby.network.routers01.risk_counts            0                       (Unspecified)
system.ruby.network.routers01.sw_input_arbiter_activity       940075                       (Unspecified)
system.ruby.network.routers01.sw_output_arbiter_activity       929932                       (Unspecified)
system.ruby.network.routers02.Var_1                 0                       (Unspecified)
system.ruby.network.routers02.Var_2                 0                       (Unspecified)
system.ruby.network.routers02.Var_3                 0                       (Unspecified)
system.ruby.network.routers02.all_counts            0                       (Unspecified)
system.ruby.network.routers02.buffer_reads       931379                       (Unspecified)
system.ruby.network.routers02.buffer_writes       931379                       (Unspecified)
system.ruby.network.routers02.crossbar_activity       931379                       (Unspecified)
system.ruby.network.routers02.detour_counts            0                       (Unspecified)
system.ruby.network.routers02.regular_var            0                       (Unspecified)
system.ruby.network.routers02.risk_counts            0                       (Unspecified)
system.ruby.network.routers02.sw_input_arbiter_activity       941768                       (Unspecified)
system.ruby.network.routers02.sw_output_arbiter_activity       931379                       (Unspecified)
system.ruby.network.routers03.Var_1                 0                       (Unspecified)
system.ruby.network.routers03.Var_2                 0                       (Unspecified)
system.ruby.network.routers03.Var_3                 0                       (Unspecified)
system.ruby.network.routers03.all_counts            0                       (Unspecified)
system.ruby.network.routers03.buffer_reads       653403                       (Unspecified)
system.ruby.network.routers03.buffer_writes       653403                       (Unspecified)
system.ruby.network.routers03.crossbar_activity       653403                       (Unspecified)
system.ruby.network.routers03.detour_counts            0                       (Unspecified)
system.ruby.network.routers03.regular_var            0                       (Unspecified)
system.ruby.network.routers03.risk_counts            0                       (Unspecified)
system.ruby.network.routers03.sw_input_arbiter_activity       657623                       (Unspecified)
system.ruby.network.routers03.sw_output_arbiter_activity       653403                       (Unspecified)
system.ruby.network.routers04.Var_1                 0                       (Unspecified)
system.ruby.network.routers04.Var_2                 0                       (Unspecified)
system.ruby.network.routers04.Var_3                 0                       (Unspecified)
system.ruby.network.routers04.all_counts            0                       (Unspecified)
system.ruby.network.routers04.buffer_reads       906856                       (Unspecified)
system.ruby.network.routers04.buffer_writes       906856                       (Unspecified)
system.ruby.network.routers04.crossbar_activity       906856                       (Unspecified)
system.ruby.network.routers04.detour_counts            0                       (Unspecified)
system.ruby.network.routers04.regular_var            0                       (Unspecified)
system.ruby.network.routers04.risk_counts            0                       (Unspecified)
system.ruby.network.routers04.sw_input_arbiter_activity       916177                       (Unspecified)
system.ruby.network.routers04.sw_output_arbiter_activity       906856                       (Unspecified)
system.ruby.network.routers05.Var_1                 0                       (Unspecified)
system.ruby.network.routers05.Var_2                 0                       (Unspecified)
system.ruby.network.routers05.Var_3                 0                       (Unspecified)
system.ruby.network.routers05.all_counts            0                       (Unspecified)
system.ruby.network.routers05.buffer_reads      1172552                       (Unspecified)
system.ruby.network.routers05.buffer_writes      1172552                       (Unspecified)
system.ruby.network.routers05.crossbar_activity      1172552                       (Unspecified)
system.ruby.network.routers05.detour_counts            0                       (Unspecified)
system.ruby.network.routers05.regular_var            0                       (Unspecified)
system.ruby.network.routers05.risk_counts            0                       (Unspecified)
system.ruby.network.routers05.sw_input_arbiter_activity      1187874                       (Unspecified)
system.ruby.network.routers05.sw_output_arbiter_activity      1172552                       (Unspecified)
system.ruby.network.routers06.Var_1                 0                       (Unspecified)
system.ruby.network.routers06.Var_2                 0                       (Unspecified)
system.ruby.network.routers06.Var_3                 0                       (Unspecified)
system.ruby.network.routers06.all_counts            0                       (Unspecified)
system.ruby.network.routers06.buffer_reads      1173400                       (Unspecified)
system.ruby.network.routers06.buffer_writes      1173400                       (Unspecified)
system.ruby.network.routers06.crossbar_activity      1173400                       (Unspecified)
system.ruby.network.routers06.detour_counts            0                       (Unspecified)
system.ruby.network.routers06.regular_var            0                       (Unspecified)
system.ruby.network.routers06.risk_counts            0                       (Unspecified)
system.ruby.network.routers06.sw_input_arbiter_activity      1189638                       (Unspecified)
system.ruby.network.routers06.sw_output_arbiter_activity      1173400                       (Unspecified)
system.ruby.network.routers07.Var_1                 0                       (Unspecified)
system.ruby.network.routers07.Var_2                 0                       (Unspecified)
system.ruby.network.routers07.Var_3                 0                       (Unspecified)
system.ruby.network.routers07.all_counts            0                       (Unspecified)
system.ruby.network.routers07.buffer_reads       899768                       (Unspecified)
system.ruby.network.routers07.buffer_writes       899768                       (Unspecified)
system.ruby.network.routers07.crossbar_activity       899768                       (Unspecified)
system.ruby.network.routers07.detour_counts            0                       (Unspecified)
system.ruby.network.routers07.regular_var            0                       (Unspecified)
system.ruby.network.routers07.risk_counts            0                       (Unspecified)
system.ruby.network.routers07.sw_input_arbiter_activity       908925                       (Unspecified)
system.ruby.network.routers07.sw_output_arbiter_activity       899768                       (Unspecified)
system.ruby.network.routers08.Var_1                 0                       (Unspecified)
system.ruby.network.routers08.Var_2                 0                       (Unspecified)
system.ruby.network.routers08.Var_3                 0                       (Unspecified)
system.ruby.network.routers08.all_counts            0                       (Unspecified)
system.ruby.network.routers08.buffer_reads       903342                       (Unspecified)
system.ruby.network.routers08.buffer_writes       903342                       (Unspecified)
system.ruby.network.routers08.crossbar_activity       903342                       (Unspecified)
system.ruby.network.routers08.detour_counts            0                       (Unspecified)
system.ruby.network.routers08.regular_var            0                       (Unspecified)
system.ruby.network.routers08.risk_counts            0                       (Unspecified)
system.ruby.network.routers08.sw_input_arbiter_activity       912632                       (Unspecified)
system.ruby.network.routers08.sw_output_arbiter_activity       903342                       (Unspecified)
system.ruby.network.routers09.Var_1                 0                       (Unspecified)
system.ruby.network.routers09.Var_2                 0                       (Unspecified)
system.ruby.network.routers09.Var_3                 0                       (Unspecified)
system.ruby.network.routers09.all_counts            0                       (Unspecified)
system.ruby.network.routers09.buffer_reads      1175856                       (Unspecified)
system.ruby.network.routers09.buffer_writes      1175856                       (Unspecified)
system.ruby.network.routers09.crossbar_activity      1175856                       (Unspecified)
system.ruby.network.routers09.detour_counts            0                       (Unspecified)
system.ruby.network.routers09.regular_var            0                       (Unspecified)
system.ruby.network.routers09.risk_counts            0                       (Unspecified)
system.ruby.network.routers09.sw_input_arbiter_activity      1191692                       (Unspecified)
system.ruby.network.routers09.sw_output_arbiter_activity      1175856                       (Unspecified)
system.ruby.network.routers10.Var_1                 0                       (Unspecified)
system.ruby.network.routers10.Var_2                 0                       (Unspecified)
system.ruby.network.routers10.Var_3                 0                       (Unspecified)
system.ruby.network.routers10.all_counts            0                       (Unspecified)
system.ruby.network.routers10.buffer_reads      1170829                       (Unspecified)
system.ruby.network.routers10.buffer_writes      1170829                       (Unspecified)
system.ruby.network.routers10.crossbar_activity      1170829                       (Unspecified)
system.ruby.network.routers10.detour_counts            0                       (Unspecified)
system.ruby.network.routers10.regular_var            0                       (Unspecified)
system.ruby.network.routers10.risk_counts            0                       (Unspecified)
system.ruby.network.routers10.sw_input_arbiter_activity      1185762                       (Unspecified)
system.ruby.network.routers10.sw_output_arbiter_activity      1170829                       (Unspecified)
system.ruby.network.routers11.Var_1                 0                       (Unspecified)
system.ruby.network.routers11.Var_2                 0                       (Unspecified)
system.ruby.network.routers11.Var_3                 0                       (Unspecified)
system.ruby.network.routers11.all_counts            0                       (Unspecified)
system.ruby.network.routers11.buffer_reads       892154                       (Unspecified)
system.ruby.network.routers11.buffer_writes       892154                       (Unspecified)
system.ruby.network.routers11.crossbar_activity       892154                       (Unspecified)
system.ruby.network.routers11.detour_counts            0                       (Unspecified)
system.ruby.network.routers11.regular_var            0                       (Unspecified)
system.ruby.network.routers11.risk_counts            0                       (Unspecified)
system.ruby.network.routers11.sw_input_arbiter_activity       901527                       (Unspecified)
system.ruby.network.routers11.sw_output_arbiter_activity       892154                       (Unspecified)
system.ruby.network.routers12.Var_1                 0                       (Unspecified)
system.ruby.network.routers12.Var_2                 0                       (Unspecified)
system.ruby.network.routers12.Var_3                 0                       (Unspecified)
system.ruby.network.routers12.all_counts            0                       (Unspecified)
system.ruby.network.routers12.buffer_reads       650840                       (Unspecified)
system.ruby.network.routers12.buffer_writes       650840                       (Unspecified)
system.ruby.network.routers12.crossbar_activity       650840                       (Unspecified)
system.ruby.network.routers12.detour_counts            0                       (Unspecified)
system.ruby.network.routers12.regular_var            0                       (Unspecified)
system.ruby.network.routers12.risk_counts            0                       (Unspecified)
system.ruby.network.routers12.sw_input_arbiter_activity       655381                       (Unspecified)
system.ruby.network.routers12.sw_output_arbiter_activity       650840                       (Unspecified)
system.ruby.network.routers13.Var_1                 0                       (Unspecified)
system.ruby.network.routers13.Var_2                 0                       (Unspecified)
system.ruby.network.routers13.Var_3                 0                       (Unspecified)
system.ruby.network.routers13.all_counts            0                       (Unspecified)
system.ruby.network.routers13.buffer_reads       918571                       (Unspecified)
system.ruby.network.routers13.buffer_writes       918571                       (Unspecified)
system.ruby.network.routers13.crossbar_activity       918571                       (Unspecified)
system.ruby.network.routers13.detour_counts            0                       (Unspecified)
system.ruby.network.routers13.regular_var            0                       (Unspecified)
system.ruby.network.routers13.risk_counts            0                       (Unspecified)
system.ruby.network.routers13.sw_input_arbiter_activity       928413                       (Unspecified)
system.ruby.network.routers13.sw_output_arbiter_activity       918571                       (Unspecified)
system.ruby.network.routers14.Var_1                 0                       (Unspecified)
system.ruby.network.routers14.Var_2                 0                       (Unspecified)
system.ruby.network.routers14.Var_3                 0                       (Unspecified)
system.ruby.network.routers14.all_counts            0                       (Unspecified)
system.ruby.network.routers14.buffer_reads       912974                       (Unspecified)
system.ruby.network.routers14.buffer_writes       912974                       (Unspecified)
system.ruby.network.routers14.crossbar_activity       912974                       (Unspecified)
system.ruby.network.routers14.detour_counts            0                       (Unspecified)
system.ruby.network.routers14.regular_var            0                       (Unspecified)
system.ruby.network.routers14.risk_counts            0                       (Unspecified)
system.ruby.network.routers14.sw_input_arbiter_activity       922690                       (Unspecified)
system.ruby.network.routers14.sw_output_arbiter_activity       912974                       (Unspecified)
system.ruby.network.routers15.Var_1                 0                       (Unspecified)
system.ruby.network.routers15.Var_2                 0                       (Unspecified)
system.ruby.network.routers15.Var_3                 0                       (Unspecified)
system.ruby.network.routers15.all_counts            0                       (Unspecified)
system.ruby.network.routers15.buffer_reads       646418                       (Unspecified)
system.ruby.network.routers15.buffer_writes       646418                       (Unspecified)
system.ruby.network.routers15.crossbar_activity       646418                       (Unspecified)
system.ruby.network.routers15.detour_counts            0                       (Unspecified)
system.ruby.network.routers15.regular_var            0                       (Unspecified)
system.ruby.network.routers15.risk_counts            0                       (Unspecified)
system.ruby.network.routers15.sw_input_arbiter_activity       650734                       (Unspecified)
system.ruby.network.routers15.sw_output_arbiter_activity       646418                       (Unspecified)

---------- End Simulation Statistics   ----------
