
---------- Begin Simulation Statistics ----------
simSeconds                                   0.005424                       # Number of seconds simulated (Second)
simTicks                                   5424278500                       # Number of ticks simulated (Tick)
finalTick                                  5424278500                       # Number of ticks from beginning of simulation (restored from checkpoints and never reset) (Tick)
simFreq                                  1000000000000                       # The number of ticks per simulated second ((Tick/Second))
hostSeconds                                    757.09                       # Real time elapsed on the host (Second)
hostTickRate                                  7164652                       # The number of ticks simulated per host second (ticks/s) ((Tick/Second))
hostMemory                                   11458208                       # Number of bytes of host memory used (Byte)
simInsts                                     37187280                       # Number of instructions simulated (Count)
simOps                                       63676608                       # Number of ops (including micro ops) simulated (Count)
hostInstRate                                    49119                       # Simulator instruction rate (inst/s) ((Count/Second))
hostOpRate                                      84107                       # Simulator op (including micro ops) rate (op/s) ((Count/Second))
system.clk_domain.clock                          1000                       # Clock period in ticks (Tick)
system.cpu0.numCycles                        10720410                       # Number of cpu cycles simulated (Cycle)
system.cpu0.numWorkItemsStarted                     0                       # Number of work items this cpu started (Count)
system.cpu0.numWorkItemsCompleted                   0                       # Number of work items this cpu completed (Count)
system.cpu0.instsAdded                        5037205                       # Number of instructions added to the IQ (excludes non-spec) (Count)
system.cpu0.nonSpecInstsAdded                    1094                       # Number of non-speculative instructions added to the IQ (Count)
system.cpu0.instsIssued                       4671385                       # Number of instructions issued (Count)
system.cpu0.squashedInstsIssued                  2871                       # Number of squashed instructions issued (Count)
system.cpu0.squashedInstsExamined             1058511                       # Number of squashed instructions iterated over during squash; mainly for profiling (Count)
system.cpu0.squashedOperandsExamined          2277895                       # Number of squashed operands that are examined and possibly removed from graph (Count)
system.cpu0.squashedNonSpecRemoved                241                       # Number of squashed non-spec instructions that were removed (Count)
system.cpu0.numIssuedDist::samples            9491038                       # Number of insts issued each cycle (Count)
system.cpu0.numIssuedDist::mean              0.492189                       # Number of insts issued each cycle (Count)
system.cpu0.numIssuedDist::stdev             1.413156                       # Number of insts issued each cycle (Count)
system.cpu0.numIssuedDist::underflows               0      0.00%      0.00% # Number of insts issued each cycle (Count)
system.cpu0.numIssuedDist::0                  8155224     85.93%     85.93% # Number of insts issued each cycle (Count)
system.cpu0.numIssuedDist::1                   224885      2.37%     88.29% # Number of insts issued each cycle (Count)
system.cpu0.numIssuedDist::2                   262339      2.76%     91.06% # Number of insts issued each cycle (Count)
system.cpu0.numIssuedDist::3                   251385      2.65%     93.71% # Number of insts issued each cycle (Count)
system.cpu0.numIssuedDist::4                   205597      2.17%     95.87% # Number of insts issued each cycle (Count)
system.cpu0.numIssuedDist::5                   153656      1.62%     97.49% # Number of insts issued each cycle (Count)
system.cpu0.numIssuedDist::6                   127787      1.35%     98.84% # Number of insts issued each cycle (Count)
system.cpu0.numIssuedDist::7                    71043      0.75%     99.59% # Number of insts issued each cycle (Count)
system.cpu0.numIssuedDist::8                    39122      0.41%    100.00% # Number of insts issued each cycle (Count)
system.cpu0.numIssuedDist::overflows                0      0.00%    100.00% # Number of insts issued each cycle (Count)
system.cpu0.numIssuedDist::min_value                0                       # Number of insts issued each cycle (Count)
system.cpu0.numIssuedDist::max_value                8                       # Number of insts issued each cycle (Count)
system.cpu0.numIssuedDist::total              9491038                       # Number of insts issued each cycle (Count)
system.cpu0.statFuBusy::No_OpClass                  0      0.00%      0.00% # attempts to use FU when none available (Count)
system.cpu0.statFuBusy::IntAlu                  42405     63.84%     63.84% # attempts to use FU when none available (Count)
system.cpu0.statFuBusy::IntMult                     0      0.00%     63.84% # attempts to use FU when none available (Count)
system.cpu0.statFuBusy::IntDiv                      0      0.00%     63.84% # attempts to use FU when none available (Count)
system.cpu0.statFuBusy::FloatAdd                    0      0.00%     63.84% # attempts to use FU when none available (Count)
system.cpu0.statFuBusy::FloatCmp                    0      0.00%     63.84% # attempts to use FU when none available (Count)
system.cpu0.statFuBusy::FloatCvt                    1      0.00%     63.84% # attempts to use FU when none available (Count)
system.cpu0.statFuBusy::FloatMult                   0      0.00%     63.84% # attempts to use FU when none available (Count)
system.cpu0.statFuBusy::FloatMultAcc                0      0.00%     63.84% # attempts to use FU when none available (Count)
system.cpu0.statFuBusy::FloatDiv                    0      0.00%     63.84% # attempts to use FU when none available (Count)
system.cpu0.statFuBusy::FloatMisc                   0      0.00%     63.84% # attempts to use FU when none available (Count)
system.cpu0.statFuBusy::FloatSqrt                   0      0.00%     63.84% # attempts to use FU when none available (Count)
system.cpu0.statFuBusy::SimdAdd                     0      0.00%     63.84% # attempts to use FU when none available (Count)
system.cpu0.statFuBusy::SimdAddAcc                  0      0.00%     63.84% # attempts to use FU when none available (Count)
system.cpu0.statFuBusy::SimdAlu                   124      0.19%     64.02% # attempts to use FU when none available (Count)
system.cpu0.statFuBusy::SimdCmp                     0      0.00%     64.02% # attempts to use FU when none available (Count)
system.cpu0.statFuBusy::SimdCvt                   160      0.24%     64.27% # attempts to use FU when none available (Count)
system.cpu0.statFuBusy::SimdMisc                    0      0.00%     64.27% # attempts to use FU when none available (Count)
system.cpu0.statFuBusy::SimdMult                    0      0.00%     64.27% # attempts to use FU when none available (Count)
system.cpu0.statFuBusy::SimdMultAcc                 0      0.00%     64.27% # attempts to use FU when none available (Count)
system.cpu0.statFuBusy::SimdShift                 207      0.31%     64.58% # attempts to use FU when none available (Count)
system.cpu0.statFuBusy::SimdShiftAcc                0      0.00%     64.58% # attempts to use FU when none available (Count)
system.cpu0.statFuBusy::SimdDiv                     0      0.00%     64.58% # attempts to use FU when none available (Count)
system.cpu0.statFuBusy::SimdSqrt                    0      0.00%     64.58% # attempts to use FU when none available (Count)
system.cpu0.statFuBusy::SimdFloatAdd                0      0.00%     64.58% # attempts to use FU when none available (Count)
system.cpu0.statFuBusy::SimdFloatAlu                0      0.00%     64.58% # attempts to use FU when none available (Count)
system.cpu0.statFuBusy::SimdFloatCmp                0      0.00%     64.58% # attempts to use FU when none available (Count)
system.cpu0.statFuBusy::SimdFloatCvt                0      0.00%     64.58% # attempts to use FU when none available (Count)
system.cpu0.statFuBusy::SimdFloatDiv                0      0.00%     64.58% # attempts to use FU when none available (Count)
system.cpu0.statFuBusy::SimdFloatMisc               0      0.00%     64.58% # attempts to use FU when none available (Count)
system.cpu0.statFuBusy::SimdFloatMult               0      0.00%     64.58% # attempts to use FU when none available (Count)
system.cpu0.statFuBusy::SimdFloatMultAcc            0      0.00%     64.58% # attempts to use FU when none available (Count)
system.cpu0.statFuBusy::SimdFloatSqrt               0      0.00%     64.58% # attempts to use FU when none available (Count)
system.cpu0.statFuBusy::SimdReduceAdd               0      0.00%     64.58% # attempts to use FU when none available (Count)
system.cpu0.statFuBusy::SimdReduceAlu               0      0.00%     64.58% # attempts to use FU when none available (Count)
system.cpu0.statFuBusy::SimdReduceCmp               0      0.00%     64.58% # attempts to use FU when none available (Count)
system.cpu0.statFuBusy::SimdFloatReduceAdd            0      0.00%     64.58% # attempts to use FU when none available (Count)
system.cpu0.statFuBusy::SimdFloatReduceCmp            0      0.00%     64.58% # attempts to use FU when none available (Count)
system.cpu0.statFuBusy::SimdAes                     0      0.00%     64.58% # attempts to use FU when none available (Count)
system.cpu0.statFuBusy::SimdAesMix                  0      0.00%     64.58% # attempts to use FU when none available (Count)
system.cpu0.statFuBusy::SimdSha1Hash                0      0.00%     64.58% # attempts to use FU when none available (Count)
system.cpu0.statFuBusy::SimdSha1Hash2               0      0.00%     64.58% # attempts to use FU when none available (Count)
system.cpu0.statFuBusy::SimdSha256Hash              0      0.00%     64.58% # attempts to use FU when none available (Count)
system.cpu0.statFuBusy::SimdSha256Hash2             0      0.00%     64.58% # attempts to use FU when none available (Count)
system.cpu0.statFuBusy::SimdShaSigma2               0      0.00%     64.58% # attempts to use FU when none available (Count)
system.cpu0.statFuBusy::SimdShaSigma3               0      0.00%     64.58% # attempts to use FU when none available (Count)
system.cpu0.statFuBusy::SimdPredAlu                 0      0.00%     64.58% # attempts to use FU when none available (Count)
system.cpu0.statFuBusy::MemRead                 12075     18.18%     82.75% # attempts to use FU when none available (Count)
system.cpu0.statFuBusy::MemWrite                 8043     12.11%     94.86% # attempts to use FU when none available (Count)
system.cpu0.statFuBusy::FloatMemRead             1668      2.51%     97.37% # attempts to use FU when none available (Count)
system.cpu0.statFuBusy::FloatMemWrite            1745      2.63%    100.00% # attempts to use FU when none available (Count)
system.cpu0.statFuBusy::IprAccess                   0      0.00%    100.00% # attempts to use FU when none available (Count)
system.cpu0.statFuBusy::InstPrefetch                0      0.00%    100.00% # attempts to use FU when none available (Count)
system.cpu0.statIssuedInstType_0::No_OpClass        17808      0.38%      0.38% # Number of instructions issued per FU type, per thread (Count)
system.cpu0.statIssuedInstType_0::IntAlu      3594876     76.96%     77.34% # Number of instructions issued per FU type, per thread (Count)
system.cpu0.statIssuedInstType_0::IntMult           34      0.00%     77.34% # Number of instructions issued per FU type, per thread (Count)
system.cpu0.statIssuedInstType_0::IntDiv        38339      0.82%     78.16% # Number of instructions issued per FU type, per thread (Count)
system.cpu0.statIssuedInstType_0::FloatAdd         4369      0.09%     78.25% # Number of instructions issued per FU type, per thread (Count)
system.cpu0.statIssuedInstType_0::FloatCmp            0      0.00%     78.25% # Number of instructions issued per FU type, per thread (Count)
system.cpu0.statIssuedInstType_0::FloatCvt         1656      0.04%     78.29% # Number of instructions issued per FU type, per thread (Count)
system.cpu0.statIssuedInstType_0::FloatMult            0      0.00%     78.29% # Number of instructions issued per FU type, per thread (Count)
system.cpu0.statIssuedInstType_0::FloatMultAcc            0      0.00%     78.29% # Number of instructions issued per FU type, per thread (Count)
system.cpu0.statIssuedInstType_0::FloatDiv            0      0.00%     78.29% # Number of instructions issued per FU type, per thread (Count)
system.cpu0.statIssuedInstType_0::FloatMisc            0      0.00%     78.29% # Number of instructions issued per FU type, per thread (Count)
system.cpu0.statIssuedInstType_0::FloatSqrt            0      0.00%     78.29% # Number of instructions issued per FU type, per thread (Count)
system.cpu0.statIssuedInstType_0::SimdAdd         8526      0.18%     78.47% # Number of instructions issued per FU type, per thread (Count)
system.cpu0.statIssuedInstType_0::SimdAddAcc            0      0.00%     78.47% # Number of instructions issued per FU type, per thread (Count)
system.cpu0.statIssuedInstType_0::SimdAlu        17259      0.37%     78.84% # Number of instructions issued per FU type, per thread (Count)
system.cpu0.statIssuedInstType_0::SimdCmp            0      0.00%     78.84% # Number of instructions issued per FU type, per thread (Count)
system.cpu0.statIssuedInstType_0::SimdCvt        18912      0.40%     79.24% # Number of instructions issued per FU type, per thread (Count)
system.cpu0.statIssuedInstType_0::SimdMisc         8989      0.19%     79.44% # Number of instructions issued per FU type, per thread (Count)
system.cpu0.statIssuedInstType_0::SimdMult            0      0.00%     79.44% # Number of instructions issued per FU type, per thread (Count)
system.cpu0.statIssuedInstType_0::SimdMultAcc            0      0.00%     79.44% # Number of instructions issued per FU type, per thread (Count)
system.cpu0.statIssuedInstType_0::SimdShift         2982      0.06%     79.50% # Number of instructions issued per FU type, per thread (Count)
system.cpu0.statIssuedInstType_0::SimdShiftAcc            0      0.00%     79.50% # Number of instructions issued per FU type, per thread (Count)
system.cpu0.statIssuedInstType_0::SimdDiv            0      0.00%     79.50% # Number of instructions issued per FU type, per thread (Count)
system.cpu0.statIssuedInstType_0::SimdSqrt            0      0.00%     79.50% # Number of instructions issued per FU type, per thread (Count)
system.cpu0.statIssuedInstType_0::SimdFloatAdd            0      0.00%     79.50% # Number of instructions issued per FU type, per thread (Count)
system.cpu0.statIssuedInstType_0::SimdFloatAlu            0      0.00%     79.50% # Number of instructions issued per FU type, per thread (Count)
system.cpu0.statIssuedInstType_0::SimdFloatCmp            0      0.00%     79.50% # Number of instructions issued per FU type, per thread (Count)
system.cpu0.statIssuedInstType_0::SimdFloatCvt            0      0.00%     79.50% # Number of instructions issued per FU type, per thread (Count)
system.cpu0.statIssuedInstType_0::SimdFloatDiv            0      0.00%     79.50% # Number of instructions issued per FU type, per thread (Count)
system.cpu0.statIssuedInstType_0::SimdFloatMisc            0      0.00%     79.50% # Number of instructions issued per FU type, per thread (Count)
system.cpu0.statIssuedInstType_0::SimdFloatMult            0      0.00%     79.50% # Number of instructions issued per FU type, per thread (Count)
system.cpu0.statIssuedInstType_0::SimdFloatMultAcc            0      0.00%     79.50% # Number of instructions issued per FU type, per thread (Count)
system.cpu0.statIssuedInstType_0::SimdFloatSqrt            0      0.00%     79.50% # Number of instructions issued per FU type, per thread (Count)
system.cpu0.statIssuedInstType_0::SimdReduceAdd            0      0.00%     79.50% # Number of instructions issued per FU type, per thread (Count)
system.cpu0.statIssuedInstType_0::SimdReduceAlu            0      0.00%     79.50% # Number of instructions issued per FU type, per thread (Count)
system.cpu0.statIssuedInstType_0::SimdReduceCmp            0      0.00%     79.50% # Number of instructions issued per FU type, per thread (Count)
system.cpu0.statIssuedInstType_0::SimdFloatReduceAdd            0      0.00%     79.50% # Number of instructions issued per FU type, per thread (Count)
system.cpu0.statIssuedInstType_0::SimdFloatReduceCmp            0      0.00%     79.50% # Number of instructions issued per FU type, per thread (Count)
system.cpu0.statIssuedInstType_0::SimdAes            0      0.00%     79.50% # Number of instructions issued per FU type, per thread (Count)
system.cpu0.statIssuedInstType_0::SimdAesMix            0      0.00%     79.50% # Number of instructions issued per FU type, per thread (Count)
system.cpu0.statIssuedInstType_0::SimdSha1Hash            0      0.00%     79.50% # Number of instructions issued per FU type, per thread (Count)
system.cpu0.statIssuedInstType_0::SimdSha1Hash2            0      0.00%     79.50% # Number of instructions issued per FU type, per thread (Count)
system.cpu0.statIssuedInstType_0::SimdSha256Hash            0      0.00%     79.50% # Number of instructions issued per FU type, per thread (Count)
system.cpu0.statIssuedInstType_0::SimdSha256Hash2            0      0.00%     79.50% # Number of instructions issued per FU type, per thread (Count)
system.cpu0.statIssuedInstType_0::SimdShaSigma2            0      0.00%     79.50% # Number of instructions issued per FU type, per thread (Count)
system.cpu0.statIssuedInstType_0::SimdShaSigma3            0      0.00%     79.50% # Number of instructions issued per FU type, per thread (Count)
system.cpu0.statIssuedInstType_0::SimdPredAlu            0      0.00%     79.50% # Number of instructions issued per FU type, per thread (Count)
system.cpu0.statIssuedInstType_0::MemRead       621541     13.31%     92.81% # Number of instructions issued per FU type, per thread (Count)
system.cpu0.statIssuedInstType_0::MemWrite       233426      5.00%     97.80% # Number of instructions issued per FU type, per thread (Count)
system.cpu0.statIssuedInstType_0::FloatMemRead        59305      1.27%     99.07% # Number of instructions issued per FU type, per thread (Count)
system.cpu0.statIssuedInstType_0::FloatMemWrite        43363      0.93%    100.00% # Number of instructions issued per FU type, per thread (Count)
system.cpu0.statIssuedInstType_0::IprAccess            0      0.00%    100.00% # Number of instructions issued per FU type, per thread (Count)
system.cpu0.statIssuedInstType_0::InstPrefetch            0      0.00%    100.00% # Number of instructions issued per FU type, per thread (Count)
system.cpu0.statIssuedInstType_0::total       4671385                       # Number of instructions issued per FU type, per thread (Count)
system.cpu0.issueRate                        0.435747                       # Inst issue rate ((Count/Cycle))
system.cpu0.fuBusy                              66428                       # FU busy when requested (Count)
system.cpu0.fuBusyRate                       0.014220                       # FU busy rate (busy events/executed inst) ((Count/Count))
system.cpu0.intInstQueueReads                18565902                       # Number of integer instruction queue reads (Count)
system.cpu0.intInstQueueWrites                5867590                       # Number of integer instruction queue writes (Count)
system.cpu0.intInstQueueWakeupAccesses        4448579                       # Number of integer instruction queue wakeup accesses (Count)
system.cpu0.fpInstQueueReads                   337205                       # Number of floating instruction queue reads (Count)
system.cpu0.fpInstQueueWrites                  229399                       # Number of floating instruction queue writes (Count)
system.cpu0.fpInstQueueWakeupAccesses          162568                       # Number of floating instruction queue wakeup accesses (Count)
system.cpu0.vecInstQueueReads                       0                       # Number of vector instruction queue reads (Count)
system.cpu0.vecInstQueueWrites                      0                       # Number of vector instruction queue writes (Count)
system.cpu0.vecInstQueueWakeupAccesses              0                       # Number of vector instruction queue wakeup accesses (Count)
system.cpu0.intAluAccesses                    4549586                       # Number of integer alu accesses (Count)
system.cpu0.fpAluAccesses                      170419                       # Number of floating point alu accesses (Count)
system.cpu0.vecAluAccesses                          0                       # Number of vector alu accesses (Count)
system.cpu0.numInsts                          4640741                       # Number of executed instructions (Count)
system.cpu0.numLoadInsts                       673048                       # Number of load instructions executed (Count)
system.cpu0.numSquashedInsts                    30644                       # Number of squashed instructions skipped in execute (Count)
system.cpu0.numSwp                                  0                       # Number of swp insts executed (Count)
system.cpu0.numNop                                  0                       # Number of nop insts executed (Count)
system.cpu0.numRefs                            947764                       # Number of memory reference insts executed (Count)
system.cpu0.numBranches                        399473                       # Number of branches executed (Count)
system.cpu0.numStoreInsts                      274716                       # Number of stores executed (Count)
system.cpu0.numRate                          0.432888                       # Inst execution rate ((Count/Cycle))
system.cpu0.timesIdled                           2368                       # Number of times that the entire CPU went into an idle state and unscheduled itself (Count)
system.cpu0.idleCycles                        1229372                       # Total number of cycles that the CPU has spent unscheduled due to idling (Cycle)
system.cpu0.committedInsts                    2324205                       # Number of Instructions Simulated (Count)
system.cpu0.committedOps                      3979788                       # Number of Ops (including micro ops) Simulated (Count)
system.cpu0.cpi                              4.612506                       # CPI: Cycles Per Instruction ((Cycle/Count))
system.cpu0.totalCpi                         4.612506                       # CPI: Total CPI of All Threads ((Cycle/Count))
system.cpu0.ipc                              0.216802                       # IPC: Instructions Per Cycle ((Count/Cycle))
system.cpu0.totalIpc                         0.216802                       # IPC: Total IPC of All Threads ((Count/Cycle))
system.cpu0.intRegfileReads                   6290681                       # Number of integer regfile reads (Count)
system.cpu0.intRegfileWrites                  3557434                       # Number of integer regfile writes (Count)
system.cpu0.fpRegfileReads                     178135                       # Number of floating regfile reads (Count)
system.cpu0.fpRegfileWrites                    109940                       # Number of floating regfile writes (Count)
system.cpu0.ccRegfileReads                    2549832                       # number of cc regfile reads (Count)
system.cpu0.ccRegfileWrites                   2100082                       # number of cc regfile writes (Count)
system.cpu0.miscRegfileReads                  1803397                       # number of misc regfile reads (Count)
system.cpu0.miscRegfileWrites                     846                       # number of misc regfile writes (Count)
system.cpu0.MemDepUnit__0.insertedLoads        701444                       # Number of loads inserted to the mem dependence unit. (Count)
system.cpu0.MemDepUnit__0.insertedStores       287179                       # Number of stores inserted to the mem dependence unit. (Count)
system.cpu0.MemDepUnit__0.conflictingLoads        23022                       # Number of conflicting loads. (Count)
system.cpu0.MemDepUnit__0.conflictingStores         6189                       # Number of conflicting stores. (Count)
system.cpu0.MemDepUnit__1.insertedLoads             0                       # Number of loads inserted to the mem dependence unit. (Count)
system.cpu0.MemDepUnit__1.insertedStores            0                       # Number of stores inserted to the mem dependence unit. (Count)
system.cpu0.MemDepUnit__1.conflictingLoads            0                       # Number of conflicting loads. (Count)
system.cpu0.MemDepUnit__1.conflictingStores            0                       # Number of conflicting stores. (Count)
system.cpu0.MemDepUnit__2.insertedLoads             0                       # Number of loads inserted to the mem dependence unit. (Count)
system.cpu0.MemDepUnit__2.insertedStores            0                       # Number of stores inserted to the mem dependence unit. (Count)
system.cpu0.MemDepUnit__2.conflictingLoads            0                       # Number of conflicting loads. (Count)
system.cpu0.MemDepUnit__2.conflictingStores            0                       # Number of conflicting stores. (Count)
system.cpu0.MemDepUnit__3.insertedLoads             0                       # Number of loads inserted to the mem dependence unit. (Count)
system.cpu0.MemDepUnit__3.insertedStores            0                       # Number of stores inserted to the mem dependence unit. (Count)
system.cpu0.MemDepUnit__3.conflictingLoads            0                       # Number of conflicting loads. (Count)
system.cpu0.MemDepUnit__3.conflictingStores            0                       # Number of conflicting stores. (Count)
system.cpu0.branchPred.lookups                 516471                       # Number of BP lookups (Count)
system.cpu0.branchPred.condPredicted           457341                       # Number of conditional branches predicted (Count)
system.cpu0.branchPred.condIncorrect            17219                       # Number of conditional branches incorrect (Count)
system.cpu0.branchPred.BTBLookups              272136                       # Number of BTB lookups (Count)
system.cpu0.branchPred.BTBUpdates                8689                       # Number of BTB updates (Count)
system.cpu0.branchPred.BTBHits                 268013                       # Number of BTB hits (Count)
system.cpu0.branchPred.BTBHitRatio           0.984849                       # BTB Hit Ratio (Ratio)
system.cpu0.branchPred.RASUsed                  13621                       # Number of times the RAS was used to get a target. (Count)
system.cpu0.branchPred.RASIncorrect                 6                       # Number of incorrect RAS predictions. (Count)
system.cpu0.branchPred.indirectLookups          10101                       # Number of indirect predictor lookups. (Count)
system.cpu0.branchPred.indirectHits              5339                       # Number of indirect target hits. (Count)
system.cpu0.branchPred.indirectMisses            4762                       # Number of indirect misses. (Count)
system.cpu0.branchPred.indirectMispredicted         1247                       # Number of mispredicted indirect branches. (Count)
system.cpu0.commit.commitSquashedInsts        1049359                       # The number of squashed insts skipped by commit (Count)
system.cpu0.commit.commitNonSpecStalls            853                       # The number of times commit has been forced to stall to communicate backwards (Count)
system.cpu0.commit.branchMispredicts            18619                       # The number of times a branch was mispredicted (Count)
system.cpu0.commit.numCommittedDist::samples      9338841                       # Number of insts commited each cycle (Count)
system.cpu0.commit.numCommittedDist::mean     0.426154                       # Number of insts commited each cycle (Count)
system.cpu0.commit.numCommittedDist::stdev     1.481415                       # Number of insts commited each cycle (Count)
system.cpu0.commit.numCommittedDist::underflows            0      0.00%      0.00% # Number of insts commited each cycle (Count)
system.cpu0.commit.numCommittedDist::0        8293361     88.81%     88.81% # Number of insts commited each cycle (Count)
system.cpu0.commit.numCommittedDist::1         269192      2.88%     91.69% # Number of insts commited each cycle (Count)
system.cpu0.commit.numCommittedDist::2         120537      1.29%     92.98% # Number of insts commited each cycle (Count)
system.cpu0.commit.numCommittedDist::3         244991      2.62%     95.60% # Number of insts commited each cycle (Count)
system.cpu0.commit.numCommittedDist::4          48039      0.51%     96.12% # Number of insts commited each cycle (Count)
system.cpu0.commit.numCommittedDist::5         101455      1.09%     97.20% # Number of insts commited each cycle (Count)
system.cpu0.commit.numCommittedDist::6          16902      0.18%     97.38% # Number of insts commited each cycle (Count)
system.cpu0.commit.numCommittedDist::7          21206      0.23%     97.61% # Number of insts commited each cycle (Count)
system.cpu0.commit.numCommittedDist::8         223158      2.39%    100.00% # Number of insts commited each cycle (Count)
system.cpu0.commit.numCommittedDist::overflows            0      0.00%    100.00% # Number of insts commited each cycle (Count)
system.cpu0.commit.numCommittedDist::min_value            0                       # Number of insts commited each cycle (Count)
system.cpu0.commit.numCommittedDist::max_value            8                       # Number of insts commited each cycle (Count)
system.cpu0.commit.numCommittedDist::total      9338841                       # Number of insts commited each cycle (Count)
system.cpu0.commit.instsCommitted             2324205                       # Number of instructions committed (Count)
system.cpu0.commit.opsCommitted               3979788                       # Number of ops (including micro ops) committed (Count)
system.cpu0.commit.memRefs                     810669                       # Number of memory references committed (Count)
system.cpu0.commit.loads                       561963                       # Number of loads committed (Count)
system.cpu0.commit.amos                             0                       # Number of atomic instructions committed (Count)
system.cpu0.commit.membars                          2                       # Number of memory barriers committed (Count)
system.cpu0.commit.branches                    363225                       # Number of branches committed (Count)
system.cpu0.commit.vectorInstructions               0                       # Number of committed Vector instructions. (Count)
system.cpu0.commit.floating                    132349                       # Number of committed floating point instructions. (Count)
system.cpu0.commit.integer                    3920113                       # Number of committed integer instructions. (Count)
system.cpu0.commit.functionCalls                 9748                       # Number of function calls committed. (Count)
system.cpu0.commit.committedInstType_0::No_OpClass        10123      0.25%      0.25% # Class of committed instruction (Count)
system.cpu0.commit.committedInstType_0::IntAlu      3077142     77.32%     77.57% # Class of committed instruction (Count)
system.cpu0.commit.committedInstType_0::IntMult           29      0.00%     77.57% # Class of committed instruction (Count)
system.cpu0.commit.committedInstType_0::IntDiv        35987      0.90%     78.48% # Class of committed instruction (Count)
system.cpu0.commit.committedInstType_0::FloatAdd         3202      0.08%     78.56% # Class of committed instruction (Count)
system.cpu0.commit.committedInstType_0::FloatCmp            0      0.00%     78.56% # Class of committed instruction (Count)
system.cpu0.commit.committedInstType_0::FloatCvt         1504      0.04%     78.60% # Class of committed instruction (Count)
system.cpu0.commit.committedInstType_0::FloatMult            0      0.00%     78.60% # Class of committed instruction (Count)
system.cpu0.commit.committedInstType_0::FloatMultAcc            0      0.00%     78.60% # Class of committed instruction (Count)
system.cpu0.commit.committedInstType_0::FloatDiv            0      0.00%     78.60% # Class of committed instruction (Count)
system.cpu0.commit.committedInstType_0::FloatMisc            0      0.00%     78.60% # Class of committed instruction (Count)
system.cpu0.commit.committedInstType_0::FloatSqrt            0      0.00%     78.60% # Class of committed instruction (Count)
system.cpu0.commit.committedInstType_0::SimdAdd         6750      0.17%     78.77% # Class of committed instruction (Count)
system.cpu0.commit.committedInstType_0::SimdAddAcc            0      0.00%     78.77% # Class of committed instruction (Count)
system.cpu0.commit.committedInstType_0::SimdAlu        12220      0.31%     79.07% # Class of committed instruction (Count)
system.cpu0.commit.committedInstType_0::SimdCmp            0      0.00%     79.07% # Class of committed instruction (Count)
system.cpu0.commit.committedInstType_0::SimdCvt        13196      0.33%     79.41% # Class of committed instruction (Count)
system.cpu0.commit.committedInstType_0::SimdMisc         7208      0.18%     79.59% # Class of committed instruction (Count)
system.cpu0.commit.committedInstType_0::SimdMult            0      0.00%     79.59% # Class of committed instruction (Count)
system.cpu0.commit.committedInstType_0::SimdMultAcc            0      0.00%     79.59% # Class of committed instruction (Count)
system.cpu0.commit.committedInstType_0::SimdShift         1758      0.04%     79.63% # Class of committed instruction (Count)
system.cpu0.commit.committedInstType_0::SimdShiftAcc            0      0.00%     79.63% # Class of committed instruction (Count)
system.cpu0.commit.committedInstType_0::SimdDiv            0      0.00%     79.63% # Class of committed instruction (Count)
system.cpu0.commit.committedInstType_0::SimdSqrt            0      0.00%     79.63% # Class of committed instruction (Count)
system.cpu0.commit.committedInstType_0::SimdFloatAdd            0      0.00%     79.63% # Class of committed instruction (Count)
system.cpu0.commit.committedInstType_0::SimdFloatAlu            0      0.00%     79.63% # Class of committed instruction (Count)
system.cpu0.commit.committedInstType_0::SimdFloatCmp            0      0.00%     79.63% # Class of committed instruction (Count)
system.cpu0.commit.committedInstType_0::SimdFloatCvt            0      0.00%     79.63% # Class of committed instruction (Count)
system.cpu0.commit.committedInstType_0::SimdFloatDiv            0      0.00%     79.63% # Class of committed instruction (Count)
system.cpu0.commit.committedInstType_0::SimdFloatMisc            0      0.00%     79.63% # Class of committed instruction (Count)
system.cpu0.commit.committedInstType_0::SimdFloatMult            0      0.00%     79.63% # Class of committed instruction (Count)
system.cpu0.commit.committedInstType_0::SimdFloatMultAcc            0      0.00%     79.63% # Class of committed instruction (Count)
system.cpu0.commit.committedInstType_0::SimdFloatSqrt            0      0.00%     79.63% # Class of committed instruction (Count)
system.cpu0.commit.committedInstType_0::SimdReduceAdd            0      0.00%     79.63% # Class of committed instruction (Count)
system.cpu0.commit.committedInstType_0::SimdReduceAlu            0      0.00%     79.63% # Class of committed instruction (Count)
system.cpu0.commit.committedInstType_0::SimdReduceCmp            0      0.00%     79.63% # Class of committed instruction (Count)
system.cpu0.commit.committedInstType_0::SimdFloatReduceAdd            0      0.00%     79.63% # Class of committed instruction (Count)
system.cpu0.commit.committedInstType_0::SimdFloatReduceCmp            0      0.00%     79.63% # Class of committed instruction (Count)
system.cpu0.commit.committedInstType_0::SimdAes            0      0.00%     79.63% # Class of committed instruction (Count)
system.cpu0.commit.committedInstType_0::SimdAesMix            0      0.00%     79.63% # Class of committed instruction (Count)
system.cpu0.commit.committedInstType_0::SimdSha1Hash            0      0.00%     79.63% # Class of committed instruction (Count)
system.cpu0.commit.committedInstType_0::SimdSha1Hash2            0      0.00%     79.63% # Class of committed instruction (Count)
system.cpu0.commit.committedInstType_0::SimdSha256Hash            0      0.00%     79.63% # Class of committed instruction (Count)
system.cpu0.commit.committedInstType_0::SimdSha256Hash2            0      0.00%     79.63% # Class of committed instruction (Count)
system.cpu0.commit.committedInstType_0::SimdShaSigma2            0      0.00%     79.63% # Class of committed instruction (Count)
system.cpu0.commit.committedInstType_0::SimdShaSigma3            0      0.00%     79.63% # Class of committed instruction (Count)
system.cpu0.commit.committedInstType_0::SimdPredAlu            0      0.00%     79.63% # Class of committed instruction (Count)
system.cpu0.commit.committedInstType_0::MemRead       515540     12.95%     92.58% # Class of committed instruction (Count)
system.cpu0.commit.committedInstType_0::MemWrite       209518      5.26%     97.85% # Class of committed instruction (Count)
system.cpu0.commit.committedInstType_0::FloatMemRead        46423      1.17%     99.02% # Class of committed instruction (Count)
system.cpu0.commit.committedInstType_0::FloatMemWrite        39188      0.98%    100.00% # Class of committed instruction (Count)
system.cpu0.commit.committedInstType_0::IprAccess            0      0.00%    100.00% # Class of committed instruction (Count)
system.cpu0.commit.committedInstType_0::InstPrefetch            0      0.00%    100.00% # Class of committed instruction (Count)
system.cpu0.commit.committedInstType_0::total      3979788                       # Class of committed instruction (Count)
system.cpu0.commit.commitEligibleSamples       223158                       # number cycles where commit BW limit reached (Cycle)
system.cpu0.decode.idleCycles                  494977                       # Number of cycles decode is idle (Cycle)
system.cpu0.decode.blockedCycles              8233770                       # Number of cycles decode is blocked (Cycle)
system.cpu0.decode.runCycles                   532636                       # Number of cycles decode is running (Cycle)
system.cpu0.decode.unblockCycles               210288                       # Number of cycles decode is unblocking (Cycle)
system.cpu0.decode.squashCycles                 19367                       # Number of cycles decode is squashing (Cycle)
system.cpu0.decode.branchResolved              254115                       # Number of times decode resolved a branch (Count)
system.cpu0.decode.branchMispred                 1221                       # Number of times decode detected a branch misprediction (Count)
system.cpu0.decode.decodedInsts               5223646                       # Number of instructions handled by decode (Count)
system.cpu0.decode.squashedInsts                 5758                       # Number of squashed instructions handled by decode (Count)
system.cpu0.fetch.icacheStallCycles            491110                       # Number of cycles fetch is stalled on an Icache miss (Cycle)
system.cpu0.fetch.insts                       3173279                       # Number of instructions fetch has processed (Count)
system.cpu0.fetch.branches                     516471                       # Number of branches that fetch encountered (Count)
system.cpu0.fetch.predictedBranches            286973                       # Number of branches that fetch has predicted taken (Count)
system.cpu0.fetch.cycles                      8740260                       # Number of cycles fetch has run and was not squashing or blocked (Cycle)
system.cpu0.fetch.squashCycles                  41118                       # Number of cycles fetch has spent squashing (Cycle)
system.cpu0.fetch.miscStallCycles               14639                       # Number of cycles fetch has spent waiting on interrupts, or bad addresses, or out of MSHRs (Cycle)
system.cpu0.fetch.pendingTrapStallCycles        16789                       # Number of stall cycles due to pending traps (Cycle)
system.cpu0.fetch.icacheWaitRetryStallCycles       207681                       # Number of stall cycles due to full MSHR (Cycle)
system.cpu0.fetch.cacheLines                   284980                       # Number of cache lines fetched (Count)
system.cpu0.fetch.icacheSquashes                 4919                       # Number of outstanding Icache misses that were squashed (Count)
system.cpu0.fetch.nisnDist::samples           9491038                       # Number of instructions fetched each cycle (Total) (Count)
system.cpu0.fetch.nisnDist::mean             0.582823                       # Number of instructions fetched each cycle (Total) (Count)
system.cpu0.fetch.nisnDist::stdev            1.924843                       # Number of instructions fetched each cycle (Total) (Count)
system.cpu0.fetch.nisnDist::underflows              0      0.00%      0.00% # Number of instructions fetched each cycle (Total) (Count)
system.cpu0.fetch.nisnDist::0                 8576097     90.36%     90.36% # Number of instructions fetched each cycle (Total) (Count)
system.cpu0.fetch.nisnDist::1                   43623      0.46%     90.82% # Number of instructions fetched each cycle (Total) (Count)
system.cpu0.fetch.nisnDist::2                   41048      0.43%     91.25% # Number of instructions fetched each cycle (Total) (Count)
system.cpu0.fetch.nisnDist::3                   72707      0.77%     92.02% # Number of instructions fetched each cycle (Total) (Count)
system.cpu0.fetch.nisnDist::4                  139630      1.47%     93.49% # Number of instructions fetched each cycle (Total) (Count)
system.cpu0.fetch.nisnDist::5                   64140      0.68%     94.17% # Number of instructions fetched each cycle (Total) (Count)
system.cpu0.fetch.nisnDist::6                   36526      0.38%     94.55% # Number of instructions fetched each cycle (Total) (Count)
system.cpu0.fetch.nisnDist::7                   48757      0.51%     95.06% # Number of instructions fetched each cycle (Total) (Count)
system.cpu0.fetch.nisnDist::8                  468510      4.94%    100.00% # Number of instructions fetched each cycle (Total) (Count)
system.cpu0.fetch.nisnDist::overflows               0      0.00%    100.00% # Number of instructions fetched each cycle (Total) (Count)
system.cpu0.fetch.nisnDist::min_value               0                       # Number of instructions fetched each cycle (Total) (Count)
system.cpu0.fetch.nisnDist::max_value               8                       # Number of instructions fetched each cycle (Total) (Count)
system.cpu0.fetch.nisnDist::total             9491038                       # Number of instructions fetched each cycle (Total) (Count)
system.cpu0.fetch.branchRate                 0.048176                       # Number of branch fetches per cycle (Ratio)
system.cpu0.fetch.rate                       0.296004                       # Number of inst fetches per cycle ((Count/Cycle))
system.cpu0.iew.idleCycles                          0                       # Number of cycles IEW is idle (Cycle)
system.cpu0.iew.squashCycles                    19367                       # Number of cycles IEW is squashing (Cycle)
system.cpu0.iew.blockCycles                   5361272                       # Number of cycles IEW is blocking (Cycle)
system.cpu0.iew.unblockCycles                  148006                       # Number of cycles IEW is unblocking (Cycle)
system.cpu0.iew.dispatchedInsts               5038299                       # Number of instructions dispatched to IQ (Count)
system.cpu0.iew.dispSquashedInsts                1075                       # Number of squashed instructions skipped by dispatch (Count)
system.cpu0.iew.dispLoadInsts                  701444                       # Number of dispatched load instructions (Count)
system.cpu0.iew.dispStoreInsts                 287179                       # Number of dispatched store instructions (Count)
system.cpu0.iew.dispNonSpecInsts                  899                       # Number of dispatched non-speculative instructions (Count)
system.cpu0.iew.iqFullEvents                     7330                       # Number of times the IQ has become full, causing a stall (Count)
system.cpu0.iew.lsqFullEvents                  135552                       # Number of times the LSQ has become full, causing a stall (Count)
system.cpu0.iew.memOrderViolationEvents           186                       # Number of memory order violations (Count)
system.cpu0.iew.predictedTakenIncorrect          7931                       # Number of branches that were predicted taken incorrectly (Count)
system.cpu0.iew.predictedNotTakenIncorrect        12915                       # Number of branches that were predicted not taken incorrectly (Count)
system.cpu0.iew.branchMispredicts               20846                       # Number of branch mispredicts detected at execute (Count)
system.cpu0.iew.instsToCommit                 4623221                       # Cumulative count of insts sent to commit (Count)
system.cpu0.iew.writebackCount                4611147                       # Cumulative count of insts written-back (Count)
system.cpu0.iew.producerInst                  3633024                       # Number of instructions producing a value (Count)
system.cpu0.iew.consumerInst                  6701256                       # Number of instructions consuming a value (Count)
system.cpu0.iew.wbRate                       0.430128                       # Insts written-back per cycle ((Count/Cycle))
system.cpu0.iew.wbFanout                     0.542141                       # Average fanout of values written-back ((Count/Count))
system.cpu0.interrupts.clk_domain.clock          8000                       # Clock period in ticks (Tick)
system.cpu0.lsq0.forwLoads                      69431                       # Number of loads that had data forwarded from stores (Count)
system.cpu0.lsq0.squashedLoads                 139481                       # Number of loads squashed (Count)
system.cpu0.lsq0.ignoredResponses                  96                       # Number of memory responses ignored because the instruction is squashed (Count)
system.cpu0.lsq0.memOrderViolation                186                       # Number of memory ordering violations (Count)
system.cpu0.lsq0.squashedStores                 38473                       # Number of stores squashed (Count)
system.cpu0.lsq0.rescheduledLoads                 206                       # Number of loads that were rescheduled (Count)
system.cpu0.lsq0.blockedByCache                  2073                       # Number of times an access to memory failed due to the cache being blocked (Count)
system.cpu0.lsq0.loadToUse::samples            561885                       # Distribution of cycle latency between the first time a load is issued and its completion (Unspecified)
system.cpu0.lsq0.loadToUse::mean            61.708675                       # Distribution of cycle latency between the first time a load is issued and its completion (Unspecified)
system.cpu0.lsq0.loadToUse::stdev          215.511052                       # Distribution of cycle latency between the first time a load is issued and its completion (Unspecified)
system.cpu0.lsq0.loadToUse::0-9                516379     91.90%     91.90% # Distribution of cycle latency between the first time a load is issued and its completion (Unspecified)
system.cpu0.lsq0.loadToUse::10-19                  45      0.01%     91.91% # Distribution of cycle latency between the first time a load is issued and its completion (Unspecified)
system.cpu0.lsq0.loadToUse::20-29                  80      0.01%     91.92% # Distribution of cycle latency between the first time a load is issued and its completion (Unspecified)
system.cpu0.lsq0.loadToUse::30-39                 132      0.02%     91.95% # Distribution of cycle latency between the first time a load is issued and its completion (Unspecified)
system.cpu0.lsq0.loadToUse::40-49                 120      0.02%     91.97% # Distribution of cycle latency between the first time a load is issued and its completion (Unspecified)
system.cpu0.lsq0.loadToUse::50-59                  99      0.02%     91.99% # Distribution of cycle latency between the first time a load is issued and its completion (Unspecified)
system.cpu0.lsq0.loadToUse::60-69                  82      0.01%     92.00% # Distribution of cycle latency between the first time a load is issued and its completion (Unspecified)
system.cpu0.lsq0.loadToUse::70-79                  58      0.01%     92.01% # Distribution of cycle latency between the first time a load is issued and its completion (Unspecified)
system.cpu0.lsq0.loadToUse::80-89                  57      0.01%     92.02% # Distribution of cycle latency between the first time a load is issued and its completion (Unspecified)
system.cpu0.lsq0.loadToUse::90-99                  56      0.01%     92.03% # Distribution of cycle latency between the first time a load is issued and its completion (Unspecified)
system.cpu0.lsq0.loadToUse::100-109                66      0.01%     92.04% # Distribution of cycle latency between the first time a load is issued and its completion (Unspecified)
system.cpu0.lsq0.loadToUse::110-119                77      0.01%     92.06% # Distribution of cycle latency between the first time a load is issued and its completion (Unspecified)
system.cpu0.lsq0.loadToUse::120-129                58      0.01%     92.07% # Distribution of cycle latency between the first time a load is issued and its completion (Unspecified)
system.cpu0.lsq0.loadToUse::130-139                69      0.01%     92.08% # Distribution of cycle latency between the first time a load is issued and its completion (Unspecified)
system.cpu0.lsq0.loadToUse::140-149                34      0.01%     92.09% # Distribution of cycle latency between the first time a load is issued and its completion (Unspecified)
system.cpu0.lsq0.loadToUse::150-159                76      0.01%     92.10% # Distribution of cycle latency between the first time a load is issued and its completion (Unspecified)
system.cpu0.lsq0.loadToUse::160-169                69      0.01%     92.11% # Distribution of cycle latency between the first time a load is issued and its completion (Unspecified)
system.cpu0.lsq0.loadToUse::170-179               138      0.02%     92.14% # Distribution of cycle latency between the first time a load is issued and its completion (Unspecified)
system.cpu0.lsq0.loadToUse::180-189               590      0.11%     92.24% # Distribution of cycle latency between the first time a load is issued and its completion (Unspecified)
system.cpu0.lsq0.loadToUse::190-199                29      0.01%     92.25% # Distribution of cycle latency between the first time a load is issued and its completion (Unspecified)
system.cpu0.lsq0.loadToUse::200-209                48      0.01%     92.25% # Distribution of cycle latency between the first time a load is issued and its completion (Unspecified)
system.cpu0.lsq0.loadToUse::210-219                60      0.01%     92.26% # Distribution of cycle latency between the first time a load is issued and its completion (Unspecified)
system.cpu0.lsq0.loadToUse::220-229                73      0.01%     92.28% # Distribution of cycle latency between the first time a load is issued and its completion (Unspecified)
system.cpu0.lsq0.loadToUse::230-239               110      0.02%     92.30% # Distribution of cycle latency between the first time a load is issued and its completion (Unspecified)
system.cpu0.lsq0.loadToUse::240-249               517      0.09%     92.39% # Distribution of cycle latency between the first time a load is issued and its completion (Unspecified)
system.cpu0.lsq0.loadToUse::250-259                24      0.00%     92.39% # Distribution of cycle latency between the first time a load is issued and its completion (Unspecified)
system.cpu0.lsq0.loadToUse::260-269                41      0.01%     92.40% # Distribution of cycle latency between the first time a load is issued and its completion (Unspecified)
system.cpu0.lsq0.loadToUse::270-279                55      0.01%     92.41% # Distribution of cycle latency between the first time a load is issued and its completion (Unspecified)
system.cpu0.lsq0.loadToUse::280-289                97      0.02%     92.43% # Distribution of cycle latency between the first time a load is issued and its completion (Unspecified)
system.cpu0.lsq0.loadToUse::290-299               146      0.03%     92.45% # Distribution of cycle latency between the first time a load is issued and its completion (Unspecified)
system.cpu0.lsq0.loadToUse::overflows           42400      7.55%    100.00% # Distribution of cycle latency between the first time a load is issued and its completion (Unspecified)
system.cpu0.lsq0.loadToUse::min_value               2                       # Distribution of cycle latency between the first time a load is issued and its completion (Unspecified)
system.cpu0.lsq0.loadToUse::max_value            2411                       # Distribution of cycle latency between the first time a load is issued and its completion (Unspecified)
system.cpu0.lsq0.loadToUse::total              561885                       # Distribution of cycle latency between the first time a load is issued and its completion (Unspecified)
system.cpu0.mmu.dtb.rdAccesses                 667535                       # TLB accesses on read requests (Count)
system.cpu0.mmu.dtb.wrAccesses                 274727                       # TLB accesses on write requests (Count)
system.cpu0.mmu.dtb.rdMisses                     3198                       # TLB misses on read requests (Count)
system.cpu0.mmu.dtb.wrMisses                      420                       # TLB misses on write requests (Count)
system.cpu0.mmu.dtb.walker.power_state.pwrStateResidencyTicks::UNDEFINED   5424278500                       # Cumulative time (in ticks) in various power states (Tick)
system.cpu0.mmu.itb.rdAccesses                      0                       # TLB accesses on read requests (Count)
system.cpu0.mmu.itb.wrAccesses                 287655                       # TLB accesses on write requests (Count)
system.cpu0.mmu.itb.rdMisses                        0                       # TLB misses on read requests (Count)
system.cpu0.mmu.itb.wrMisses                     3225                       # TLB misses on write requests (Count)
system.cpu0.mmu.itb.walker.power_state.pwrStateResidencyTicks::UNDEFINED   5424278500                       # Cumulative time (in ticks) in various power states (Tick)
system.cpu0.power_state.pwrStateResidencyTicks::ON   5424278500                       # Cumulative time (in ticks) in various power states (Tick)
system.cpu0.rename.squashCycles                 19367                       # Number of cycles rename is squashing (Cycle)
system.cpu0.rename.idleCycles                  576249                       # Number of cycles rename is idle (Cycle)
system.cpu0.rename.blockCycles                7100821                       # Number of cycles rename is blocking (Cycle)
system.cpu0.rename.serializeStallCycles         23712                       # count of cycles rename stalled for serializing inst (Cycle)
system.cpu0.rename.runCycles                   652377                       # Number of cycles rename is running (Cycle)
system.cpu0.rename.unblockCycles              1118512                       # Number of cycles rename is unblocking (Cycle)
system.cpu0.rename.renamedInsts               5142460                       # Number of instructions processed by rename (Count)
system.cpu0.rename.ROBFullEvents               112033                       # Number of times rename has blocked due to ROB full (Count)
system.cpu0.rename.IQFullEvents                240232                       # Number of times rename has blocked due to IQ full (Count)
system.cpu0.rename.LQFullEvents                166445                       # Number of times rename has blocked due to LQ full (Count)
system.cpu0.rename.SQFullEvents                649504                       # Number of times rename has blocked due to SQ full (Count)
system.cpu0.rename.fullRegistersEvents           3240                       # Number of times there has been no free registers (Count)
system.cpu0.rename.renamedOperands           10675839                       # Number of destination operands rename has renamed (Count)
system.cpu0.rename.lookups                   19333444                       # Number of register rename lookups that rename has made (Count)
system.cpu0.rename.intLookups                 7226789                       # Number of integer rename lookups (Count)
system.cpu0.rename.fpLookups                   216390                       # Number of floating rename lookups (Count)
system.cpu0.rename.committedMaps              8303310                       # Number of HB maps that are committed (Count)
system.cpu0.rename.undoneMaps                 2372529                       # Number of HB maps that are undone due to squashing (Count)
system.cpu0.rename.serializing                    874                       # count of serializing insts renamed (Count)
system.cpu0.rename.tempSerializing                859                       # count of temporary serializing insts renamed (Count)
system.cpu0.rename.skidInsts                  1010093                       # count of insts added to the skid buffer (Count)
system.cpu0.rob.reads                        14137121                       # The number of ROB reads (Count)
system.cpu0.rob.writes                       10210723                       # The number of ROB writes (Count)
system.cpu0.thread_0.numInsts                 2324205                       # Number of Instructions committed (Count)
system.cpu0.thread_0.numOps                   3979788                       # Number of Ops committed (Count)
system.cpu0.thread_0.numMemRefs                     0                       # Number of Memory References (Count)
system.cpu0.workload.numSyscalls                   63                       # Number of system calls (Count)
system.cpu1.numCycles                        10368113                       # Number of cpu cycles simulated (Cycle)
system.cpu1.numWorkItemsStarted                     0                       # Number of work items this cpu started (Count)
system.cpu1.numWorkItemsCompleted                   0                       # Number of work items this cpu completed (Count)
system.cpu1.instsAdded                        5038264                       # Number of instructions added to the IQ (excludes non-spec) (Count)
system.cpu1.nonSpecInstsAdded                    1094                       # Number of non-speculative instructions added to the IQ (Count)
system.cpu1.instsIssued                       4671936                       # Number of instructions issued (Count)
system.cpu1.squashedInstsIssued                  2887                       # Number of squashed instructions issued (Count)
system.cpu1.squashedInstsExamined             1059570                       # Number of squashed instructions iterated over during squash; mainly for profiling (Count)
system.cpu1.squashedOperandsExamined          2280383                       # Number of squashed operands that are examined and possibly removed from graph (Count)
system.cpu1.squashedNonSpecRemoved                241                       # Number of squashed non-spec instructions that were removed (Count)
system.cpu1.numIssuedDist::samples            9208402                       # Number of insts issued each cycle (Count)
system.cpu1.numIssuedDist::mean              0.507356                       # Number of insts issued each cycle (Count)
system.cpu1.numIssuedDist::stdev             1.431904                       # Number of insts issued each cycle (Count)
system.cpu1.numIssuedDist::underflows               0      0.00%      0.00% # Number of insts issued each cycle (Count)
system.cpu1.numIssuedDist::0                  7872097     85.49%     85.49% # Number of insts issued each cycle (Count)
system.cpu1.numIssuedDist::1                   225069      2.44%     87.93% # Number of insts issued each cycle (Count)
system.cpu1.numIssuedDist::2                   262498      2.85%     90.78% # Number of insts issued each cycle (Count)
system.cpu1.numIssuedDist::3                   251563      2.73%     93.51% # Number of insts issued each cycle (Count)
system.cpu1.numIssuedDist::4                   205657      2.23%     95.75% # Number of insts issued each cycle (Count)
system.cpu1.numIssuedDist::5                   153718      1.67%     97.42% # Number of insts issued each cycle (Count)
system.cpu1.numIssuedDist::6                   127762      1.39%     98.81% # Number of insts issued each cycle (Count)
system.cpu1.numIssuedDist::7                    70912      0.77%     99.58% # Number of insts issued each cycle (Count)
system.cpu1.numIssuedDist::8                    39126      0.42%    100.00% # Number of insts issued each cycle (Count)
system.cpu1.numIssuedDist::overflows                0      0.00%    100.00% # Number of insts issued each cycle (Count)
system.cpu1.numIssuedDist::min_value                0                       # Number of insts issued each cycle (Count)
system.cpu1.numIssuedDist::max_value                8                       # Number of insts issued each cycle (Count)
system.cpu1.numIssuedDist::total              9208402                       # Number of insts issued each cycle (Count)
system.cpu1.statFuBusy::No_OpClass                  0      0.00%      0.00% # attempts to use FU when none available (Count)
system.cpu1.statFuBusy::IntAlu                  42278     63.72%     63.72% # attempts to use FU when none available (Count)
system.cpu1.statFuBusy::IntMult                     0      0.00%     63.72% # attempts to use FU when none available (Count)
system.cpu1.statFuBusy::IntDiv                      0      0.00%     63.72% # attempts to use FU when none available (Count)
system.cpu1.statFuBusy::FloatAdd                    0      0.00%     63.72% # attempts to use FU when none available (Count)
system.cpu1.statFuBusy::FloatCmp                    0      0.00%     63.72% # attempts to use FU when none available (Count)
system.cpu1.statFuBusy::FloatCvt                    0      0.00%     63.72% # attempts to use FU when none available (Count)
system.cpu1.statFuBusy::FloatMult                   0      0.00%     63.72% # attempts to use FU when none available (Count)
system.cpu1.statFuBusy::FloatMultAcc                0      0.00%     63.72% # attempts to use FU when none available (Count)
system.cpu1.statFuBusy::FloatDiv                    0      0.00%     63.72% # attempts to use FU when none available (Count)
system.cpu1.statFuBusy::FloatMisc                   0      0.00%     63.72% # attempts to use FU when none available (Count)
system.cpu1.statFuBusy::FloatSqrt                   0      0.00%     63.72% # attempts to use FU when none available (Count)
system.cpu1.statFuBusy::SimdAdd                     0      0.00%     63.72% # attempts to use FU when none available (Count)
system.cpu1.statFuBusy::SimdAddAcc                  0      0.00%     63.72% # attempts to use FU when none available (Count)
system.cpu1.statFuBusy::SimdAlu                   124      0.19%     63.91% # attempts to use FU when none available (Count)
system.cpu1.statFuBusy::SimdCmp                     0      0.00%     63.91% # attempts to use FU when none available (Count)
system.cpu1.statFuBusy::SimdCvt                   173      0.26%     64.17% # attempts to use FU when none available (Count)
system.cpu1.statFuBusy::SimdMisc                    0      0.00%     64.17% # attempts to use FU when none available (Count)
system.cpu1.statFuBusy::SimdMult                    0      0.00%     64.17% # attempts to use FU when none available (Count)
system.cpu1.statFuBusy::SimdMultAcc                 0      0.00%     64.17% # attempts to use FU when none available (Count)
system.cpu1.statFuBusy::SimdShift                 207      0.31%     64.48% # attempts to use FU when none available (Count)
system.cpu1.statFuBusy::SimdShiftAcc                0      0.00%     64.48% # attempts to use FU when none available (Count)
system.cpu1.statFuBusy::SimdDiv                     0      0.00%     64.48% # attempts to use FU when none available (Count)
system.cpu1.statFuBusy::SimdSqrt                    0      0.00%     64.48% # attempts to use FU when none available (Count)
system.cpu1.statFuBusy::SimdFloatAdd                0      0.00%     64.48% # attempts to use FU when none available (Count)
system.cpu1.statFuBusy::SimdFloatAlu                0      0.00%     64.48% # attempts to use FU when none available (Count)
system.cpu1.statFuBusy::SimdFloatCmp                0      0.00%     64.48% # attempts to use FU when none available (Count)
system.cpu1.statFuBusy::SimdFloatCvt                0      0.00%     64.48% # attempts to use FU when none available (Count)
system.cpu1.statFuBusy::SimdFloatDiv                0      0.00%     64.48% # attempts to use FU when none available (Count)
system.cpu1.statFuBusy::SimdFloatMisc               0      0.00%     64.48% # attempts to use FU when none available (Count)
system.cpu1.statFuBusy::SimdFloatMult               0      0.00%     64.48% # attempts to use FU when none available (Count)
system.cpu1.statFuBusy::SimdFloatMultAcc            0      0.00%     64.48% # attempts to use FU when none available (Count)
system.cpu1.statFuBusy::SimdFloatSqrt               0      0.00%     64.48% # attempts to use FU when none available (Count)
system.cpu1.statFuBusy::SimdReduceAdd               0      0.00%     64.48% # attempts to use FU when none available (Count)
system.cpu1.statFuBusy::SimdReduceAlu               0      0.00%     64.48% # attempts to use FU when none available (Count)
system.cpu1.statFuBusy::SimdReduceCmp               0      0.00%     64.48% # attempts to use FU when none available (Count)
system.cpu1.statFuBusy::SimdFloatReduceAdd            0      0.00%     64.48% # attempts to use FU when none available (Count)
system.cpu1.statFuBusy::SimdFloatReduceCmp            0      0.00%     64.48% # attempts to use FU when none available (Count)
system.cpu1.statFuBusy::SimdAes                     0      0.00%     64.48% # attempts to use FU when none available (Count)
system.cpu1.statFuBusy::SimdAesMix                  0      0.00%     64.48% # attempts to use FU when none available (Count)
system.cpu1.statFuBusy::SimdSha1Hash                0      0.00%     64.48% # attempts to use FU when none available (Count)
system.cpu1.statFuBusy::SimdSha1Hash2               0      0.00%     64.48% # attempts to use FU when none available (Count)
system.cpu1.statFuBusy::SimdSha256Hash              0      0.00%     64.48% # attempts to use FU when none available (Count)
system.cpu1.statFuBusy::SimdSha256Hash2             0      0.00%     64.48% # attempts to use FU when none available (Count)
system.cpu1.statFuBusy::SimdShaSigma2               0      0.00%     64.48% # attempts to use FU when none available (Count)
system.cpu1.statFuBusy::SimdShaSigma3               0      0.00%     64.48% # attempts to use FU when none available (Count)
system.cpu1.statFuBusy::SimdPredAlu                 0      0.00%     64.48% # attempts to use FU when none available (Count)
system.cpu1.statFuBusy::MemRead                 12089     18.22%     82.70% # attempts to use FU when none available (Count)
system.cpu1.statFuBusy::MemWrite                 8064     12.15%     94.86% # attempts to use FU when none available (Count)
system.cpu1.statFuBusy::FloatMemRead             1673      2.52%     97.38% # attempts to use FU when none available (Count)
system.cpu1.statFuBusy::FloatMemWrite            1740      2.62%    100.00% # attempts to use FU when none available (Count)
system.cpu1.statFuBusy::IprAccess                   0      0.00%    100.00% # attempts to use FU when none available (Count)
system.cpu1.statFuBusy::InstPrefetch                0      0.00%    100.00% # attempts to use FU when none available (Count)
system.cpu1.statIssuedInstType_0::No_OpClass        17916      0.38%      0.38% # Number of instructions issued per FU type, per thread (Count)
system.cpu1.statIssuedInstType_0::IntAlu      3595023     76.95%     77.33% # Number of instructions issued per FU type, per thread (Count)
system.cpu1.statIssuedInstType_0::IntMult           35      0.00%     77.33% # Number of instructions issued per FU type, per thread (Count)
system.cpu1.statIssuedInstType_0::IntDiv        38342      0.82%     78.15% # Number of instructions issued per FU type, per thread (Count)
system.cpu1.statIssuedInstType_0::FloatAdd         4364      0.09%     78.25% # Number of instructions issued per FU type, per thread (Count)
system.cpu1.statIssuedInstType_0::FloatCmp            0      0.00%     78.25% # Number of instructions issued per FU type, per thread (Count)
system.cpu1.statIssuedInstType_0::FloatCvt         1710      0.04%     78.28% # Number of instructions issued per FU type, per thread (Count)
system.cpu1.statIssuedInstType_0::FloatMult            0      0.00%     78.28% # Number of instructions issued per FU type, per thread (Count)
system.cpu1.statIssuedInstType_0::FloatMultAcc            0      0.00%     78.28% # Number of instructions issued per FU type, per thread (Count)
system.cpu1.statIssuedInstType_0::FloatDiv            0      0.00%     78.28% # Number of instructions issued per FU type, per thread (Count)
system.cpu1.statIssuedInstType_0::FloatMisc            0      0.00%     78.28% # Number of instructions issued per FU type, per thread (Count)
system.cpu1.statIssuedInstType_0::FloatSqrt            0      0.00%     78.28% # Number of instructions issued per FU type, per thread (Count)
system.cpu1.statIssuedInstType_0::SimdAdd         8549      0.18%     78.47% # Number of instructions issued per FU type, per thread (Count)
system.cpu1.statIssuedInstType_0::SimdAddAcc            0      0.00%     78.47% # Number of instructions issued per FU type, per thread (Count)
system.cpu1.statIssuedInstType_0::SimdAlu        17272      0.37%     78.84% # Number of instructions issued per FU type, per thread (Count)
system.cpu1.statIssuedInstType_0::SimdCmp            0      0.00%     78.84% # Number of instructions issued per FU type, per thread (Count)
system.cpu1.statIssuedInstType_0::SimdCvt        18951      0.41%     79.24% # Number of instructions issued per FU type, per thread (Count)
system.cpu1.statIssuedInstType_0::SimdMisc         9017      0.19%     79.44% # Number of instructions issued per FU type, per thread (Count)
system.cpu1.statIssuedInstType_0::SimdMult            0      0.00%     79.44% # Number of instructions issued per FU type, per thread (Count)
system.cpu1.statIssuedInstType_0::SimdMultAcc            0      0.00%     79.44% # Number of instructions issued per FU type, per thread (Count)
system.cpu1.statIssuedInstType_0::SimdShift         3002      0.06%     79.50% # Number of instructions issued per FU type, per thread (Count)
system.cpu1.statIssuedInstType_0::SimdShiftAcc            0      0.00%     79.50% # Number of instructions issued per FU type, per thread (Count)
system.cpu1.statIssuedInstType_0::SimdDiv            0      0.00%     79.50% # Number of instructions issued per FU type, per thread (Count)
system.cpu1.statIssuedInstType_0::SimdSqrt            0      0.00%     79.50% # Number of instructions issued per FU type, per thread (Count)
system.cpu1.statIssuedInstType_0::SimdFloatAdd            0      0.00%     79.50% # Number of instructions issued per FU type, per thread (Count)
system.cpu1.statIssuedInstType_0::SimdFloatAlu            0      0.00%     79.50% # Number of instructions issued per FU type, per thread (Count)
system.cpu1.statIssuedInstType_0::SimdFloatCmp            0      0.00%     79.50% # Number of instructions issued per FU type, per thread (Count)
system.cpu1.statIssuedInstType_0::SimdFloatCvt            0      0.00%     79.50% # Number of instructions issued per FU type, per thread (Count)
system.cpu1.statIssuedInstType_0::SimdFloatDiv            0      0.00%     79.50% # Number of instructions issued per FU type, per thread (Count)
system.cpu1.statIssuedInstType_0::SimdFloatMisc            0      0.00%     79.50% # Number of instructions issued per FU type, per thread (Count)
system.cpu1.statIssuedInstType_0::SimdFloatMult            0      0.00%     79.50% # Number of instructions issued per FU type, per thread (Count)
system.cpu1.statIssuedInstType_0::SimdFloatMultAcc            0      0.00%     79.50% # Number of instructions issued per FU type, per thread (Count)
system.cpu1.statIssuedInstType_0::SimdFloatSqrt            0      0.00%     79.50% # Number of instructions issued per FU type, per thread (Count)
system.cpu1.statIssuedInstType_0::SimdReduceAdd            0      0.00%     79.50% # Number of instructions issued per FU type, per thread (Count)
system.cpu1.statIssuedInstType_0::SimdReduceAlu            0      0.00%     79.50% # Number of instructions issued per FU type, per thread (Count)
system.cpu1.statIssuedInstType_0::SimdReduceCmp            0      0.00%     79.50% # Number of instructions issued per FU type, per thread (Count)
system.cpu1.statIssuedInstType_0::SimdFloatReduceAdd            0      0.00%     79.50% # Number of instructions issued per FU type, per thread (Count)
system.cpu1.statIssuedInstType_0::SimdFloatReduceCmp            0      0.00%     79.50% # Number of instructions issued per FU type, per thread (Count)
system.cpu1.statIssuedInstType_0::SimdAes            0      0.00%     79.50% # Number of instructions issued per FU type, per thread (Count)
system.cpu1.statIssuedInstType_0::SimdAesMix            0      0.00%     79.50% # Number of instructions issued per FU type, per thread (Count)
system.cpu1.statIssuedInstType_0::SimdSha1Hash            0      0.00%     79.50% # Number of instructions issued per FU type, per thread (Count)
system.cpu1.statIssuedInstType_0::SimdSha1Hash2            0      0.00%     79.50% # Number of instructions issued per FU type, per thread (Count)
system.cpu1.statIssuedInstType_0::SimdSha256Hash            0      0.00%     79.50% # Number of instructions issued per FU type, per thread (Count)
system.cpu1.statIssuedInstType_0::SimdSha256Hash2            0      0.00%     79.50% # Number of instructions issued per FU type, per thread (Count)
system.cpu1.statIssuedInstType_0::SimdShaSigma2            0      0.00%     79.50% # Number of instructions issued per FU type, per thread (Count)
system.cpu1.statIssuedInstType_0::SimdShaSigma3            0      0.00%     79.50% # Number of instructions issued per FU type, per thread (Count)
system.cpu1.statIssuedInstType_0::SimdPredAlu            0      0.00%     79.50% # Number of instructions issued per FU type, per thread (Count)
system.cpu1.statIssuedInstType_0::MemRead       621469     13.30%     92.80% # Number of instructions issued per FU type, per thread (Count)
system.cpu1.statIssuedInstType_0::MemWrite       233534      5.00%     97.80% # Number of instructions issued per FU type, per thread (Count)
system.cpu1.statIssuedInstType_0::FloatMemRead        59373      1.27%     99.07% # Number of instructions issued per FU type, per thread (Count)
system.cpu1.statIssuedInstType_0::FloatMemWrite        43379      0.93%    100.00% # Number of instructions issued per FU type, per thread (Count)
system.cpu1.statIssuedInstType_0::IprAccess            0      0.00%    100.00% # Number of instructions issued per FU type, per thread (Count)
system.cpu1.statIssuedInstType_0::InstPrefetch            0      0.00%    100.00% # Number of instructions issued per FU type, per thread (Count)
system.cpu1.statIssuedInstType_0::total       4671936                       # Number of instructions issued per FU type, per thread (Count)
system.cpu1.issueRate                        0.450606                       # Inst issue rate ((Count/Cycle))
system.cpu1.fuBusy                              66348                       # FU busy when requested (Count)
system.cpu1.fuBusyRate                       0.014201                       # FU busy rate (busy events/executed inst) ((Count/Count))
system.cpu1.intInstQueueReads                18283770                       # Number of integer instruction queue reads (Count)
system.cpu1.intInstQueueWrites                5869018                       # Number of integer instruction queue writes (Count)
system.cpu1.intInstQueueWakeupAccesses        4448868                       # Number of integer instruction queue wakeup accesses (Count)
system.cpu1.fpInstQueueReads                   337739                       # Number of floating instruction queue reads (Count)
system.cpu1.fpInstQueueWrites                  230085                       # Number of floating instruction queue writes (Count)
system.cpu1.fpInstQueueWakeupAccesses          162795                       # Number of floating instruction queue wakeup accesses (Count)
system.cpu1.vecInstQueueReads                       0                       # Number of vector instruction queue reads (Count)
system.cpu1.vecInstQueueWrites                      0                       # Number of vector instruction queue writes (Count)
system.cpu1.vecInstQueueWakeupAccesses              0                       # Number of vector instruction queue wakeup accesses (Count)
system.cpu1.intAluAccesses                    4549689                       # Number of integer alu accesses (Count)
system.cpu1.fpAluAccesses                      170679                       # Number of floating point alu accesses (Count)
system.cpu1.vecAluAccesses                          0                       # Number of vector alu accesses (Count)
system.cpu1.numInsts                          4641380                       # Number of executed instructions (Count)
system.cpu1.numLoadInsts                       673053                       # Number of load instructions executed (Count)
system.cpu1.numSquashedInsts                    30556                       # Number of squashed instructions skipped in execute (Count)
system.cpu1.numSwp                                  0                       # Number of swp insts executed (Count)
system.cpu1.numNop                                  0                       # Number of nop insts executed (Count)
system.cpu1.numRefs                            947879                       # Number of memory reference insts executed (Count)
system.cpu1.numBranches                        399436                       # Number of branches executed (Count)
[...]
system.ruby.network.ext_out_link_utilization      4216084                       (Unspecified)
system.ruby.network.flit_network_latency |105620107000                       |209437513000                       | 28981606500                       (Unspecified)
system.ruby.network.flit_queueing_latency |  2173650500                       |  1959951000                       |   148664000                       (Unspecified)
system.ruby.network.flits_injected       |      999771     23.71%     23.71% |     2918990     69.23%     92.95% |      297329      7.05%    100.00% (Unspecified)
system.ruby.network.flits_injected::total      4216090                       (Unspecified)
system.ruby.network.flits_received       |      999771     23.71%     23.71% |     2918985     69.23%     92.95% |      297328      7.05%    100.00% (Unspecified)
system.ruby.network.flits_received::total      4216084                       (Unspecified)
system.ruby.network.int_link_utilization     12768076                       (Unspecified)
system.ruby.network.packet_network_latency | 79237949500                       | 69257280500                       | 28981606500                       (Unspecified)
system.ruby.network.packet_queueing_latency |  1772298500                       |   521347000                       |   148664000                       (Unspecified)
system.ruby.network.packets_injected     |      815179     42.29%     42.29% |      815178     42.29%     84.58% |      297329     15.42%    100.00% (Unspecified)
system.ruby.network.packets_injected::total      1927686                       (Unspecified)
system.ruby.network.packets_received     |      815179     42.29%     42.29% |      815177     42.29%     84.58% |      297328     15.42%    100.00% (Unspecified)
system.ruby.network.packets_received::total      1927684                       (Unspecified)
system.ruby.network.routers00.Var_1                 0                       (Unspecified)
system.ruby.network.routers00.Var_2                 0                       (Unspecified)
system.ruby.network.routers00.Var_3                 0                       (Unspecified)
system.ruby.network.routers00.all_counts            0                       (Unspecified)
system.ruby.network.routers00.buffer_reads       754257                       (Unspecified)
system.ruby.network.routers00.buffer_writes       754257                       (Unspecified)
system.ruby.network.routers00.crossbar_activity       754257                       (Unspecified)
system.ruby.network.routers00.detour_counts        53734                       (Unspecified)
system.ruby.network.routers00.regular_var            0                       (Unspecified)
system.ruby.network.routers00.risk_counts            0                       (Unspecified)
system.ruby.network.routers00.sw_input_arbiter_activity       759838                       (Unspecified)
system.ruby.network.routers00.sw_output_arbiter_activity       754257                       (Unspecified)
system.ruby.network.routers01.Var_1                 0                       (Unspecified)
system.ruby.network.routers01.Var_2                 0                       (Unspecified)
system.ruby.network.routers01.Var_3                 0                       (Unspecified)
system.ruby.network.routers01.all_counts            0                       (Unspecified)
system.ruby.network.routers01.buffer_reads      1082885                       (Unspecified)
system.ruby.network.routers01.buffer_writes      1082885                       (Unspecified)
system.ruby.network.routers01.crossbar_activity      1082885                       (Unspecified)
system.ruby.network.routers01.detour_counts        53870                       (Unspecified)
system.ruby.network.routers01.regular_var            0                       (Unspecified)
system.ruby.network.routers01.risk_counts            0                       (Unspecified)
system.ruby.network.routers01.sw_input_arbiter_activity      1095147                       (Unspecified)
system.ruby.network.routers01.sw_output_arbiter_activity      1082885                       (Unspecified)
system.ruby.network.routers02.Var_1                 0                       (Unspecified)
system.ruby.network.routers02.Var_2                 0                       (Unspecified)
system.ruby.network.routers02.Var_3                 0                       (Unspecified)
system.ruby.network.routers02.all_counts            0                       (Unspecified)
system.ruby.network.routers02.buffer_reads      1085399                       (Unspecified)
system.ruby.network.routers02.buffer_writes      1085399                       (Unspecified)
system.ruby.network.routers02.crossbar_activity      1085399                       (Unspecified)
system.ruby.network.routers02.detour_counts        53832                       (Unspecified)
system.ruby.network.routers02.regular_var            0                       (Unspecified)
system.ruby.network.routers02.risk_counts            0                       (Unspecified)
system.ruby.network.routers02.sw_input_arbiter_activity      1098036                       (Unspecified)
system.ruby.network.routers02.sw_output_arbiter_activity      1085399                       (Unspecified)
system.ruby.network.routers03.Var_1                 0                       (Unspecified)
system.ruby.network.routers03.Var_2                 0                       (Unspecified)
system.ruby.network.routers03.Var_3                 0                       (Unspecified)
system.ruby.network.routers03.all_counts            0                       (Unspecified)
system.ruby.network.routers03.buffer_reads       744969                       (Unspecified)
system.ruby.network.routers03.buffer_writes       744969                       (Unspecified)
system.ruby.network.routers03.crossbar_activity       744969                       (Unspecified)
system.ruby.network.routers03.detour_counts        53861                       (Unspecified)
system.ruby.network.routers03.regular_var            0                       (Unspecified)
system.ruby.network.routers03.risk_counts            0                       (Unspecified)
system.ruby.network.routers03.sw_input_arbiter_activity       750506                       (Unspecified)
system.ruby.network.routers03.sw_output_arbiter_activity       744969                       (Unspecified)
system.ruby.network.routers04.Var_1                 0                       (Unspecified)
system.ruby.network.routers04.Var_2                 0                       (Unspecified)
system.ruby.network.routers04.Var_3                 0                       (Unspecified)
system.ruby.network.routers04.all_counts            0                       (Unspecified)
system.ruby.network.routers04.buffer_reads      1053092                       (Unspecified)
system.ruby.network.routers04.buffer_writes      1053092                       (Unspecified)
system.ruby.network.routers04.crossbar_activity      1053092                       (Unspecified)
system.ruby.network.routers04.detour_counts        53853                       (Unspecified)
system.ruby.network.routers04.regular_var            0                       (Unspecified)
system.ruby.network.routers04.risk_counts            0                       (Unspecified)
system.ruby.network.routers04.sw_input_arbiter_activity      1064601                       (Unspecified)
system.ruby.network.routers04.sw_output_arbiter_activity      1053092                       (Unspecified)
system.ruby.network.routers05.Var_1                 0                       (Unspecified)
system.ruby.network.routers05.Var_2                 0                       (Unspecified)
system.ruby.network.routers05.Var_3                 0                       (Unspecified)
system.ruby.network.routers05.all_counts            0                       (Unspecified)
system.ruby.network.routers05.buffer_reads      1378648                       (Unspecified)
system.ruby.network.routers05.buffer_writes      1378648                       (Unspecified)
system.ruby.network.routers05.crossbar_activity      1378648                       (Unspecified)
system.ruby.network.routers05.detour_counts        53875                       (Unspecified)
system.ruby.network.routers05.regular_var            0                       (Unspecified)
system.ruby.network.routers05.risk_counts            0                       (Unspecified)
system.ruby.network.routers05.sw_input_arbiter_activity      1396840                       (Unspecified)
system.ruby.network.routers05.sw_output_arbiter_activity      1378648                       (Unspecified)
system.ruby.network.routers06.Var_1                 0                       (Unspecified)
system.ruby.network.routers06.Var_2                 0                       (Unspecified)
system.ruby.network.routers06.Var_3                 0                       (Unspecified)
system.ruby.network.routers06.all_counts            0                       (Unspecified)
system.ruby.network.routers06.buffer_reads      1378770                       (Unspecified)
system.ruby.network.routers06.buffer_writes      1378770                       (Unspecified)
system.ruby.network.routers06.crossbar_activity      1378770                       (Unspecified)
system.ruby.network.routers06.detour_counts        53872                       (Unspecified)
system.ruby.network.routers06.regular_var            0                       (Unspecified)
system.ruby.network.routers06.risk_counts            0                       (Unspecified)
system.ruby.network.routers06.sw_input_arbiter_activity      1397265                       (Unspecified)
system.ruby.network.routers06.sw_output_arbiter_activity      1378770                       (Unspecified)
system.ruby.network.routers07.Var_1                 0                       (Unspecified)
system.ruby.network.routers07.Var_2                 0                       (Unspecified)
system.ruby.network.routers07.Var_3                 0                       (Unspecified)
system.ruby.network.routers07.all_counts            0                       (Unspecified)
system.ruby.network.routers07.buffer_reads      1041390                       (Unspecified)
system.ruby.network.routers07.buffer_writes      1041390                       (Unspecified)
system.ruby.network.routers07.crossbar_activity      1041390                       (Unspecified)
system.ruby.network.routers07.detour_counts        53971                       (Unspecified)
system.ruby.network.routers07.regular_var            0                       (Unspecified)
system.ruby.network.routers07.risk_counts            0                       (Unspecified)
system.ruby.network.routers07.sw_input_arbiter_activity      1052729                       (Unspecified)
system.ruby.network.routers07.sw_output_arbiter_activity      1041390                       (Unspecified)
system.ruby.network.routers08.Var_1                 0                       (Unspecified)
system.ruby.network.routers08.Var_2                 0                       (Unspecified)
system.ruby.network.routers08.Var_3                 0                       (Unspecified)
system.ruby.network.routers08.all_counts            0                       (Unspecified)
system.ruby.network.routers08.buffer_reads      1050420                       (Unspecified)
system.ruby.network.routers08.buffer_writes      1050420                       (Unspecified)
system.ruby.network.routers08.crossbar_activity      1050420                       (Unspecified)
system.ruby.network.routers08.detour_counts        53854                       (Unspecified)
system.ruby.network.routers08.regular_var            0                       (Unspecified)
system.ruby.network.routers08.risk_counts            0                       (Unspecified)
system.ruby.network.routers08.sw_input_arbiter_activity      1062161                       (Unspecified)
system.ruby.network.routers08.sw_output_arbiter_activity      1050420                       (Unspecified)
system.ruby.network.routers09.Var_1                 0                       (Unspecified)
system.ruby.network.routers09.Var_2                 0                       (Unspecified)
system.ruby.network.routers09.Var_3                 0                       (Unspecified)
system.ruby.network.routers09.all_counts            0                       (Unspecified)
system.ruby.network.routers09.buffer_reads      1379562                       (Unspecified)
system.ruby.network.routers09.buffer_writes      1379562                       (Unspecified)
system.ruby.network.routers09.crossbar_activity      1379562                       (Unspecified)
system.ruby.network.routers09.detour_counts        53743                       (Unspecified)
system.ruby.network.routers09.regular_var            0                       (Unspecified)
system.ruby.network.routers09.risk_counts            0                       (Unspecified)
system.ruby.network.routers09.sw_input_arbiter_activity      1397800                       (Unspecified)
system.ruby.network.routers09.sw_output_arbiter_activity      1379562                       (Unspecified)
system.ruby.network.routers10.Var_1                 0                       (Unspecified)
system.ruby.network.routers10.Var_2                 0                       (Unspecified)
system.ruby.network.routers10.Var_3                 0                       (Unspecified)
system.ruby.network.routers10.all_counts            0                       (Unspecified)
system.ruby.network.routers10.buffer_reads      1378680                       (Unspecified)
system.ruby.network.routers10.buffer_writes      1378680                       (Unspecified)
system.ruby.network.routers10.crossbar_activity      1378680                       (Unspecified)
system.ruby.network.routers10.detour_counts        53717                       (Unspecified)
system.ruby.network.routers10.regular_var            0                       (Unspecified)
system.ruby.network.routers10.risk_counts            0                       (Unspecified)
system.ruby.network.routers10.sw_input_arbiter_activity      1396931                       (Unspecified)
system.ruby.network.routers10.sw_output_arbiter_activity      1378680                       (Unspecified)
system.ruby.network.routers11.Var_1                 0                       (Unspecified)
system.ruby.network.routers11.Var_2                 0                       (Unspecified)
system.ruby.network.routers11.Var_3                 0                       (Unspecified)
system.ruby.network.routers11.all_counts            0                       (Unspecified)
system.ruby.network.routers11.buffer_reads      1037547                       (Unspecified)
system.ruby.network.routers11.buffer_writes      1037547                       (Unspecified)
system.ruby.network.routers11.crossbar_activity      1037547                       (Unspecified)
system.ruby.network.routers11.detour_counts        53989                       (Unspecified)
system.ruby.network.routers11.regular_var            0                       (Unspecified)
system.ruby.network.routers11.risk_counts            0                       (Unspecified)
system.ruby.network.routers11.sw_input_arbiter_activity      1048762                       (Unspecified)
system.ruby.network.routers11.sw_output_arbiter_activity      1037547                       (Unspecified)
system.ruby.network.routers12.Var_1                 0                       (Unspecified)
system.ruby.network.routers12.Var_2                 0                       (Unspecified)
system.ruby.network.routers12.Var_3                 0                       (Unspecified)
system.ruby.network.routers12.all_counts            0                       (Unspecified)
system.ruby.network.routers12.buffer_reads       742548                       (Unspecified)
system.ruby.network.routers12.buffer_writes       742548                       (Unspecified)
system.ruby.network.routers12.crossbar_activity       742548                       (Unspecified)
system.ruby.network.routers12.detour_counts        53856                       (Unspecified)
system.ruby.network.routers12.regular_var            0                       (Unspecified)
system.ruby.network.routers12.risk_counts            0                       (Unspecified)
system.ruby.network.routers12.sw_input_arbiter_activity       747967                       (Unspecified)
system.ruby.network.routers12.sw_output_arbiter_activity       742548                       (Unspecified)
system.ruby.network.routers13.Var_1                 0                       (Unspecified)
system.ruby.network.routers13.Var_2                 0                       (Unspecified)
system.ruby.network.routers13.Var_3                 0                       (Unspecified)
system.ruby.network.routers13.all_counts            0                       (Unspecified)
system.ruby.network.routers13.buffer_reads      1071820                       (Unspecified)
system.ruby.network.routers13.buffer_writes      1071820                       (Unspecified)
system.ruby.network.routers13.crossbar_activity      1071820                       (Unspecified)
system.ruby.network.routers13.detour_counts        53796                       (Unspecified)
system.ruby.network.routers13.regular_var            0                       (Unspecified)
system.ruby.network.routers13.risk_counts            0                       (Unspecified)
system.ruby.network.routers13.sw_input_arbiter_activity      1084196                       (Unspecified)
system.ruby.network.routers13.sw_output_arbiter_activity      1071820                       (Unspecified)
system.ruby.network.routers14.Var_1                 0                       (Unspecified)
system.ruby.network.routers14.Var_2                 0                       (Unspecified)
system.ruby.network.routers14.Var_3                 0                       (Unspecified)
system.ruby.network.routers14.all_counts            0                       (Unspecified)
system.ruby.network.routers14.buffer_reads      1067505                       (Unspecified)
system.ruby.network.routers14.buffer_writes      1067505                       (Unspecified)
system.ruby.network.routers14.crossbar_activity      1067505                       (Unspecified)
system.ruby.network.routers14.detour_counts        53972                       (Unspecified)
system.ruby.network.routers14.regular_var            0                       (Unspecified)
system.ruby.network.routers14.risk_counts            0                       (Unspecified)
system.ruby.network.routers14.sw_input_arbiter_activity      1079441                       (Unspecified)
system.ruby.network.routers14.sw_output_arbiter_activity      1067505                       (Unspecified)
system.ruby.network.routers15.Var_1                 0                       (Unspecified)
system.ruby.network.routers15.Var_2                 0                       (Unspecified)
system.ruby.network.routers15.Var_3                 0                       (Unspecified)
system.ruby.network.routers15.all_counts            0                       (Unspecified)
system.ruby.network.routers15.buffer_reads       736668                       (Unspecified)
system.ruby.network.routers15.buffer_writes       736668                       (Unspecified)
system.ruby.network.routers15.crossbar_activity       736668                       (Unspecified)
system.ruby.network.routers15.detour_counts        53958                       (Unspecified)
system.ruby.network.routers15.regular_var            0                       (Unspecified)
system.ruby.network.routers15.risk_counts            0                       (Unspecified)
system.ruby.network.routers15.sw_input_arbiter_activity       742021                       (Unspecified)
system.ruby.network.routers15.sw_output_arbiter_activity       736668                       (Unspecified)

---------- End Simulation Statistics   ----------
