
---------- Begin Simulation Statistics ----------
simSeconds                                   0.005048                       # Number of seconds simulated (Second)
simTicks                                   5048294500                       # Number of ticks simulated (Tick)
finalTick                                  5048294500                       # Number of ticks from beginning of simulation (restored from checkpoints and never reset) (Tick)
simFreq                                  1000000000000                       # The number of ticks per simulated second ((Tick/Second))
hostSeconds                                    702.94                       # Real time elapsed on the host (Second)
hostTickRate                                  7181673                       # The number of ticks simulated per host second (ticks/s) ((Tick/Second))
hostMemory                                   11458216                       # Number of bytes of host memory used (Byte)
simInsts                                     37187280                       # Number of instructions simulated (Count)
simOps                                       63676608                       # Number of ops (including micro ops) simulated (Count)
hostInstRate                                    52902                       # Simulator instruction rate (inst/s) ((Count/Second))
hostOpRate                                      90586                       # Simulator op (including micro ops) rate (op/s) ((Count/Second))
system.clk_domain.clock                          1000                       # Clock period in ticks (Tick)
system.cpu0.numCycles                        10014857                       # Number of cpu cycles simulated (Cycle)
system.cpu0.numWorkItemsStarted                     0                       # Number of work items this cpu started (Count)
system.cpu0.numWorkItemsCompleted                   0                       # Number of work items this cpu completed (Count)
system.cpu0.instsAdded                        5037081                       # Number of instructions added to the IQ (excludes non-spec) (Count)
system.cpu0.nonSpecInstsAdded                    1094                       # Number of non-speculative instructions added to the IQ (Count)
system.cpu0.instsIssued                       4671288                       # Number of instructions issued (Count)
system.cpu0.squashedInstsIssued                  2804                       # Number of squashed instructions issued (Count)
system.cpu0.squashedInstsExamined             1058387                       # Number of squashed instructions iterated over during squash; mainly for profiling (Count)
system.cpu0.squashedOperandsExamined          2278373                       # Number of squashed operands that are examined and possibly removed from graph (Count)
system.cpu0.squashedNonSpecRemoved                241                       # Number of squashed non-spec instructions that were removed (Count)
system.cpu0.numIssuedDist::samples            8846441                       # Number of insts issued each cycle (Count)
system.cpu0.numIssuedDist::mean              0.528042                       # Number of insts issued each cycle (Count)
system.cpu0.numIssuedDist::stdev             1.456955                       # Number of insts issued each cycle (Count)
system.cpu0.numIssuedDist::underflows               0      0.00%      0.00% # Number of insts issued each cycle (Count)
system.cpu0.numIssuedDist::0                  7510110     84.89%     84.89% # Number of insts issued each cycle (Count)
system.cpu0.numIssuedDist::1                   225180      2.55%     87.44% # Number of insts issued each cycle (Count)
system.cpu0.numIssuedDist::2                   262544      2.97%     90.41% # Number of insts issued each cycle (Count)
system.cpu0.numIssuedDist::3                   251545      2.84%     93.25% # Number of insts issued each cycle (Count)
system.cpu0.numIssuedDist::4                   205653      2.32%     95.58% # Number of insts issued each cycle (Count)
system.cpu0.numIssuedDist::5                   153724      1.74%     97.31% # Number of insts issued each cycle (Count)
system.cpu0.numIssuedDist::6                   127691      1.44%     98.76% # Number of insts issued each cycle (Count)
system.cpu0.numIssuedDist::7                    70945      0.80%     99.56% # Number of insts issued each cycle (Count)
system.cpu0.numIssuedDist::8                    39049      0.44%    100.00% # Number of insts issued each cycle (Count)
system.cpu0.numIssuedDist::overflows                0      0.00%    100.00% # Number of insts issued each cycle (Count)
system.cpu0.numIssuedDist::min_value                0                       # Number of insts issued each cycle (Count)
system.cpu0.numIssuedDist::max_value                8                       # Number of insts issued each cycle (Count)
system.cpu0.numIssuedDist::total              8846441                       # Number of insts issued each cycle (Count)
system.cpu0.statFuBusy::No_OpClass                  0      0.00%      0.00% # attempts to use FU when none available (Count)
system.cpu0.statFuBusy::IntAlu                  42238     63.68%     63.68% # attempts to use FU when none available (Count)
system.cpu0.statFuBusy::IntMult                     0      0.00%     63.68% # attempts to use FU when none available (Count)
system.cpu0.statFuBusy::IntDiv                      0      0.00%     63.68% # attempts to use FU when none available (Count)
system.cpu0.statFuBusy::FloatAdd                    0      0.00%     63.68% # attempts to use FU when none available (Count)
system.cpu0.statFuBusy::FloatCmp                    0      0.00%     63.68% # attempts to use FU when none available (Count)
system.cpu0.statFuBusy::FloatCvt                    2      0.00%     63.69% # attempts to use FU when none available (Count)
system.cpu0.statFuBusy::FloatMult                   0      0.00%     63.69% # attempts to use FU when none available (Count)
system.cpu0.statFuBusy::FloatMultAcc                0      0.00%     63.69% # attempts to use FU when none available (Count)
system.cpu0.statFuBusy::FloatDiv                    0      0.00%     63.69% # attempts to use FU when none available (Count)
system.cpu0.statFuBusy::FloatMisc                   0      0.00%     63.69% # attempts to use FU when none available (Count)
system.cpu0.statFuBusy::FloatSqrt                   0      0.00%     63.69% # attempts to use FU when none available (Count)
system.cpu0.statFuBusy::SimdAdd                     0      0.00%     63.69% # attempts to use FU when none available (Count)
system.cpu0.statFuBusy::SimdAddAcc                  0      0.00%     63.69% # attempts to use FU when none available (Count)
system.cpu0.statFuBusy::SimdAlu                   124      0.19%     63.87% # attempts to use FU when none available (Count)
system.cpu0.statFuBusy::SimdCmp                     0      0.00%     63.87% # attempts to use FU when none available (Count)
system.cpu0.statFuBusy::SimdCvt                   170      0.26%     64.13% # attempts to use FU when none available (Count)
system.cpu0.statFuBusy::SimdMisc                    0      0.00%     64.13% # attempts to use FU when none available (Count)
system.cpu0.statFuBusy::SimdMult                    0      0.00%     64.13% # attempts to use FU when none available (Count)
system.cpu0.statFuBusy::SimdMultAcc                 0      0.00%     64.13% # attempts to use FU when none available (Count)
system.cpu0.statFuBusy::SimdShift                 213      0.32%     64.45% # attempts to use FU when none available (Count)
system.cpu0.statFuBusy::SimdShiftAcc                0      0.00%     64.45% # attempts to use FU when none available (Count)
system.cpu0.statFuBusy::SimdDiv                     0      0.00%     64.45% # attempts to use FU when none available (Count)
system.cpu0.statFuBusy::SimdSqrt                    0      0.00%     64.45% # attempts to use FU when none available (Count)
system.cpu0.statFuBusy::SimdFloatAdd                0      0.00%     64.45% # attempts to use FU when none available (Count)
system.cpu0.statFuBusy::SimdFloatAlu                0      0.00%     64.45% # attempts to use FU when none available (Count)
system.cpu0.statFuBusy::SimdFloatCmp                0      0.00%     64.45% # attempts to use FU when none available (Count)
system.cpu0.statFuBusy::SimdFloatCvt                0      0.00%     64.45% # attempts to use FU when none available (Count)
system.cpu0.statFuBusy::SimdFloatDiv                0      0.00%     64.45% # attempts to use FU when none available (Count)
system.cpu0.statFuBusy::SimdFloatMisc               0      0.00%     64.45% # attempts to use FU when none available (Count)
system.cpu0.statFuBusy::SimdFloatMult               0      0.00%     64.45% # attempts to use FU when none available (Count)
system.cpu0.statFuBusy::SimdFloatMultAcc            0      0.00%     64.45% # attempts to use FU when none available (Count)
system.cpu0.statFuBusy::SimdFloatSqrt               0      0.00%     64.45% # attempts to use FU when none available (Count)
system.cpu0.statFuBusy::SimdReduceAdd               0      0.00%     64.45% # attempts to use FU when none available (Count)
system.cpu0.statFuBusy::SimdReduceAlu               0      0.00%     64.45% # attempts to use FU when none available (Count)
system.cpu0.statFuBusy::SimdReduceCmp               0      0.00%     64.45% # attempts to use FU when none available (Count)
system.cpu0.statFuBusy::SimdFloatReduceAdd            0      0.00%     64.45% # attempts to use FU when none available (Count)
system.cpu0.statFuBusy::SimdFloatReduceCmp            0      0.00%     64.45% # attempts to use FU when none available (Count)
system.cpu0.statFuBusy::SimdAes                     0      0.00%     64.45% # attempts to use FU when none available (Count)
system.cpu0.statFuBusy::SimdAesMix                  0      0.00%     64.45% # attempts to use FU when none available (Count)
system.cpu0.statFuBusy::SimdSha1Hash                0      0.00%     64.45% # attempts to use FU when none available (Count)
system.cpu0.statFuBusy::SimdSha1Hash2               0      0.00%     64.45% # attempts to use FU when none available (Count)
system.cpu0.statFuBusy::SimdSha256Hash              0      0.00%     64.45% # attempts to use FU when none available (Count)
system.cpu0.statFuBusy::SimdSha256Hash2             0      0.00%     64.45% # attempts to use FU when none available (Count)
system.cpu0.statFuBusy::SimdShaSigma2               0      0.00%     64.45% # attempts to use FU when none available (Count)
system.cpu0.statFuBusy::SimdShaSigma3               0      0.00%     64.45% # attempts to use FU when none available (Count)
system.cpu0.statFuBusy::SimdPredAlu                 0      0.00%     64.45% # attempts to use FU when none available (Count)
system.cpu0.statFuBusy::MemRead                 12101     18.24%     82.69% # attempts to use FU when none available (Count)
system.cpu0.statFuBusy::MemWrite                 8065     12.16%     94.85% # attempts to use FU when none available (Count)
system.cpu0.statFuBusy::FloatMemRead             1671      2.52%     97.37% # attempts to use FU when none available (Count)
system.cpu0.statFuBusy::FloatMemWrite            1742      2.63%    100.00% # attempts to use FU when none available (Count)
system.cpu0.statFuBusy::IprAccess                   0      0.00%    100.00% # attempts to use FU when none available (Count)
system.cpu0.statFuBusy::InstPrefetch                0      0.00%    100.00% # attempts to use FU when none available (Count)
system.cpu0.statIssuedInstType_0::No_OpClass        17598      0.38%      0.38% # Number of instructions issued per FU type, per thread (Count)
system.cpu0.statIssuedInstType_0::IntAlu      3594823     76.96%     77.33% # Number of instructions issued per FU type, per thread (Count)
system.cpu0.statIssuedInstType_0::IntMult           34      0.00%     77.33% # Number of instructions issued per FU type, per thread (Count)
system.cpu0.statIssuedInstType_0::IntDiv        38339      0.82%     78.15% # Number of instructions issued per FU type, per thread (Count)
system.cpu0.statIssuedInstType_0::FloatAdd         4376      0.09%     78.25% # Number of instructions issued per FU type, per thread (Count)
system.cpu0.statIssuedInstType_0::FloatCmp            0      0.00%     78.25% # Number of instructions issued per FU type, per thread (Count)
system.cpu0.statIssuedInstType_0::FloatCvt         1696      0.04%     78.28% # Number of instructions issued per FU type, per thread (Count)
system.cpu0.statIssuedInstType_0::FloatMult            0      0.00%     78.28% # Number of instructions issued per FU type, per thread (Count)
system.cpu0.statIssuedInstType_0::FloatMultAcc            0      0.00%     78.28% # Number of instructions issued per FU type, per thread (Count)
system.cpu0.statIssuedInstType_0::FloatDiv            0      0.00%     78.28% # Number of instructions issued per FU type, per thread (Count)
system.cpu0.statIssuedInstType_0::FloatMisc            0      0.00%     78.28% # Number of instructions issued per FU type, per thread (Count)
system.cpu0.statIssuedInstType_0::FloatSqrt            0      0.00%     78.28% # Number of instructions issued per FU type, per thread (Count)
system.cpu0.statIssuedInstType_0::SimdAdd         8534      0.18%     78.47% # Number of instructions issued per FU type, per thread (Count)
system.cpu0.statIssuedInstType_0::SimdAddAcc            0      0.00%     78.47% # Number of instructions issued per FU type, per thread (Count)
system.cpu0.statIssuedInstType_0::SimdAlu        17276      0.37%     78.84% # Number of instructions issued per FU type, per thread (Count)
system.cpu0.statIssuedInstType_0::SimdCmp            0      0.00%     78.84% # Number of instructions issued per FU type, per thread (Count)
system.cpu0.statIssuedInstType_0::SimdCvt        18915      0.40%     79.24% # Number of instructions issued per FU type, per thread (Count)
system.cpu0.statIssuedInstType_0::SimdMisc         9002      0.19%     79.43% # Number of instructions issued per FU type, per thread (Count)
system.cpu0.statIssuedInstType_0::SimdMult            0      0.00%     79.43% # Number of instructions issued per FU type, per thread (Count)
system.cpu0.statIssuedInstType_0::SimdMultAcc            0      0.00%     79.43% # Number of instructions issued per FU type, per thread (Count)
system.cpu0.statIssuedInstType_0::SimdShift         3005      0.06%     79.50% # Number of instructions issued per FU type, per thread (Count)
system.cpu0.statIssuedInstType_0::SimdShiftAcc            0      0.00%     79.50% # Number of instructions issued per FU type, per thread (Count)
system.cpu0.statIssuedInstType_0::SimdDiv            0      0.00%     79.50% # Number of instructions issued per FU type, per thread (Count)
system.cpu0.statIssuedInstType_0::SimdSqrt            0      0.00%     79.50% # Number of instructions issued per FU type, per thread (Count)
system.cpu0.statIssuedInstType_0::SimdFloatAdd            0      0.00%     79.50% # Number of instructions issued per FU type, per thread (Count)
system.cpu0.statIssuedInstType_0::SimdFloatAlu            0      0.00%     79.50% # Number of instructions issued per FU type, per thread (Count)
system.cpu0.statIssuedInstType_0::SimdFloatCmp            0      0.00%     79.50% # Number of instructions issued per FU type, per thread (Count)
system.cpu0.statIssuedInstType_0::SimdFloatCvt            0      0.00%     79.50% # Number of instructions issued per FU type, per thread (Count)
system.cpu0.statIssuedInstType_0::SimdFloatDiv            0      0.00%     79.50% # Number of instructions issued per FU type, per thread (Count)
system.cpu0.statIssuedInstType_0::SimdFloatMisc            0      0.00%     79.50% # Number of instructions issued per FU type, per thread (Count)
system.cpu0.statIssuedInstType_0::SimdFloatMult            0      0.00%     79.50% # Number of instructions issued per FU type, per thread (Count)
system.cpu0.statIssuedInstType_0::SimdFloatMultAcc            0      0.00%     79.50% # Number of instructions issued per FU type, per thread (Count)
system.cpu0.statIssuedInstType_0::SimdFloatSqrt            0      0.00%     79.50% # Number of instructions issued per FU type, per thread (Count)
system.cpu0.statIssuedInstType_0::SimdReduceAdd            0      0.00%     79.50% # Number of instructions issued per FU type, per thread (Count)
system.cpu0.statIssuedInstType_0::SimdReduceAlu            0      0.00%     79.50% # Number of instructions issued per FU type, per thread (Count)
system.cpu0.statIssuedInstType_0::SimdReduceCmp            0      0.00%     79.50% # Number of instructions issued per FU type, per thread (Count)
system.cpu0.statIssuedInstType_0::SimdFloatReduceAdd            0      0.00%     79.50% # Number of instructions issued per FU type, per thread (Count)
system.cpu0.statIssuedInstType_0::SimdFloatReduceCmp            0      0.00%     79.50% # Number of instructions issued per FU type, per thread (Count)
system.cpu0.statIssuedInstType_0::SimdAes            0      0.00%     79.50% # Number of instructions issued per FU type, per thread (Count)
system.cpu0.statIssuedInstType_0::SimdAesMix            0      0.00%     79.50% # Number of instructions issued per FU type, per thread (Count)
system.cpu0.statIssuedInstType_0::SimdSha1Hash            0      0.00%     79.50% # Number of instructions issued per FU type, per thread (Count)
system.cpu0.statIssuedInstType_0::SimdSha1Hash2            0      0.00%     79.50% # Number of instructions issued per FU type, per thread (Count)
system.cpu0.statIssuedInstType_0::SimdSha256Hash            0      0.00%     79.50% # Number of instructions issued per FU type, per thread (Count)
system.cpu0.statIssuedInstType_0::SimdSha256Hash2            0      0.00%     79.50% # Number of instructions issued per FU type, per thread (Count)
system.cpu0.statIssuedInstType_0::SimdShaSigma2            0      0.00%     79.50% # Number of instructions issued per FU type, per thread (Count)
system.cpu0.statIssuedInstType_0::SimdShaSigma3            0      0.00%     79.50% # Number of instructions issued per FU type, per thread (Count)
system.cpu0.statIssuedInstType_0::SimdPredAlu            0      0.00%     79.50% # Number of instructions issued per FU type, per thread (Count)
system.cpu0.statIssuedInstType_0::MemRead       621491     13.30%     92.80% # Number of instructions issued per FU type, per thread (Count)
system.cpu0.statIssuedInstType_0::MemWrite       233451      5.00%     97.80% # Number of instructions issued per FU type, per thread (Count)
system.cpu0.statIssuedInstType_0::FloatMemRead        59388      1.27%     99.07% # Number of instructions issued per FU type, per thread (Count)
system.cpu0.statIssuedInstType_0::FloatMemWrite        43360      0.93%    100.00% # Number of instructions issued per FU type, per thread (Count)
system.cpu0.statIssuedInstType_0::IprAccess            0      0.00%    100.00% # Number of instructions issued per FU type, per thread (Count)
system.cpu0.statIssuedInstType_0::InstPrefetch            0      0.00%    100.00% # Number of instructions issued per FU type, per thread (Count)
system.cpu0.statIssuedInstType_0::total       4671288                       # Number of instructions issued per FU type, per thread (Count)
system.cpu0.issueRate                        0.466436                       # Inst issue rate ((Count/Cycle))
system.cpu0.fuBusy                              66326                       # FU busy when requested (Count)
system.cpu0.fuBusyRate                       0.014199                       # FU busy rate (busy events/executed inst) ((Count/Count))
system.cpu0.intInstQueueReads                17920521                       # Number of integer instruction queue reads (Count)
system.cpu0.intInstQueueWrites                5866769                       # Number of integer instruction queue writes (Count)
system.cpu0.intInstQueueWakeupAccesses        4448603                       # Number of integer instruction queue wakeup accesses (Count)
system.cpu0.fpInstQueueReads                   337626                       # Number of floating instruction queue reads (Count)
system.cpu0.fpInstQueueWrites                  229969                       # Number of floating instruction queue writes (Count)
system.cpu0.fpInstQueueWakeupAccesses          162699                       # Number of floating instruction queue wakeup accesses (Count)
system.cpu0.vecInstQueueReads                       0                       # Number of vector instruction queue reads (Count)
system.cpu0.vecInstQueueWrites                      0                       # Number of vector instruction queue writes (Count)
system.cpu0.vecInstQueueWakeupAccesses              0                       # Number of vector instruction queue wakeup accesses (Count)
system.cpu0.intAluAccesses                    4549385                       # Number of integer alu accesses (Count)
system.cpu0.fpAluAccesses                      170631                       # Number of floating point alu accesses (Count)
system.cpu0.vecAluAccesses                          0                       # Number of vector alu accesses (Count)
system.cpu0.numInsts                          4640755                       # Number of executed instructions (Count)
system.cpu0.numLoadInsts                       673077                       # Number of load instructions executed (Count)
system.cpu0.numSquashedInsts                    30533                       # Number of squashed instructions skipped in execute (Count)
system.cpu0.numSwp                                  0                       # Number of swp insts executed (Count)
system.cpu0.numNop                                  0                       # Number of nop insts executed (Count)
system.cpu0.numRefs                            947822                       # Number of memory reference insts executed (Count)
system.cpu0.numBranches                        399424                       # Number of branches executed (Count)
system.cpu0.numStoreInsts                      274745                       # Number of stores executed (Count)
system.cpu0.numRate                          0.463387                       # Inst execution rate ((Count/Cycle))
system.cpu0.timesIdled                           2379                       # Number of times that the entire CPU went into an idle state and unscheduled itself (Count)
system.cpu0.idleCycles                        1168416                       # Total number of cycles that the CPU has spent unscheduled due to idling (Cycle)
system.cpu0.committedInsts                    2324205                       # Number of Instructions Simulated (Count)
system.cpu0.committedOps                      3979788                       # Number of Ops (including micro ops) Simulated (Count)
system.cpu0.cpi                              4.308939                       # CPI: Cycles Per Instruction ((Cycle/Count))
system.cpu0.totalCpi                         4.308939                       # CPI: Total CPI of All Threads ((Cycle/Count))
system.cpu0.ipc                              0.232076                       # IPC: Instructions Per Cycle ((Count/Cycle))
system.cpu0.totalIpc                         0.232076                       # IPC: Total IPC of All Threads ((Count/Cycle))
system.cpu0.intRegfileReads                   6290899                       # Number of integer regfile reads (Count)
system.cpu0.intRegfileWrites                  3557512                       # Number of integer regfile writes (Count)
system.cpu0.fpRegfileReads                     178315                       # Number of floating regfile reads (Count)
system.cpu0.fpRegfileWrites                    110032                       # Number of floating regfile writes (Count)
system.cpu0.ccRegfileReads                    2549784                       # number of cc regfile reads (Count)
system.cpu0.ccRegfileWrites                   2100015                       # number of cc regfile writes (Count)
system.cpu0.miscRegfileReads                  1803382                       # number of misc regfile reads (Count)
system.cpu0.miscRegfileWrites                     846                       # number of misc regfile writes (Count)
system.cpu0.MemDepUnit__0.insertedLoads        701413                       # Number of loads inserted to the mem dependence unit. (Count)
system.cpu0.MemDepUnit__0.insertedStores       287150                       # Number of stores inserted to the mem dependence unit. (Count)
system.cpu0.MemDepUnit__0.conflictingLoads        23006                       # Number of conflicting loads. (Count)
system.cpu0.MemDepUnit__0.conflictingStores         6181                       # Number of conflicting stores. (Count)
system.cpu0.MemDepUnit__1.insertedLoads             0                       # Number of loads inserted to the mem dependence unit. (Count)
system.cpu0.MemDepUnit__1.insertedStores            0                       # Number of stores inserted to the mem dependence unit. (Count)
system.cpu0.MemDepUnit__1.conflictingLoads            0                       # Number of conflicting loads. (Count)
system.cpu0.MemDepUnit__1.conflictingStores            0                       # Number of conflicting stores. (Count)
system.cpu0.MemDepUnit__2.insertedLoads             0                       # Number of loads inserted to the mem dependence unit. (Count)
system.cpu0.MemDepUnit__2.insertedStores            0                       # Number of stores inserted to the mem dependence unit. (Count)
system.cpu0.MemDepUnit__2.conflictingLoads            0                       # Number of conflicting loads. (Count)
system.cpu0.MemDepUnit__2.conflictingStores            0                       # Number of conflicting stores. (Count)
system.cpu0.MemDepUnit__3.insertedLoads             0                       # Number of loads inserted to the mem dependence unit. (Count)
system.cpu0.MemDepUnit__3.insertedStores            0                       # Number of stores inserted to the mem dependence unit. (Count)
system.cpu0.MemDepUnit__3.conflictingLoads            0                       # Number of conflicting loads. (Count)
system.cpu0.MemDepUnit__3.conflictingStores            0                       # Number of conflicting stores. (Count)
system.cpu0.branchPred.lookups                 516526                       # Number of BP lookups (Count)
system.cpu0.branchPred.condPredicted           457396                       # Number of conditional branches predicted (Count)
system.cpu0.branchPred.condIncorrect            17253                       # Number of conditional branches incorrect (Count)
system.cpu0.branchPred.BTBLookups              272101                       # Number of BTB lookups (Count)
system.cpu0.branchPred.BTBUpdates                8714                       # Number of BTB updates (Count)
system.cpu0.branchPred.BTBHits                 268010                       # Number of BTB hits (Count)
system.cpu0.branchPred.BTBHitRatio           0.984965                       # BTB Hit Ratio (Ratio)
system.cpu0.branchPred.RASUsed                  13638                       # Number of times the RAS was used to get a target. (Count)
system.cpu0.branchPred.RASIncorrect                 8                       # Number of incorrect RAS predictions. (Count)
system.cpu0.branchPred.indirectLookups          10069                       # Number of indirect predictor lookups. (Count)
system.cpu0.branchPred.indirectHits              5317                       # Number of indirect target hits. (Count)
system.cpu0.branchPred.indirectMisses            4752                       # Number of indirect misses. (Count)
system.cpu0.branchPred.indirectMispredicted         1253                       # Number of mispredicted indirect branches. (Count)
system.cpu0.commit.commitSquashedInsts        1049248                       # The number of squashed insts skipped by commit (Count)
system.cpu0.commit.commitNonSpecStalls            853                       # The number of times commit has been forced to stall to communicate backwards (Count)
system.cpu0.commit.branchMispredicts            18409                       # The number of times a branch was mispredicted (Count)
system.cpu0.commit.numCommittedDist::samples      8694492                       # Number of insts commited each cycle (Count)
system.cpu0.commit.numCommittedDist::mean     0.457737                       # Number of insts commited each cycle (Count)
system.cpu0.commit.numCommittedDist::stdev     1.530698                       # Number of insts commited each cycle (Count)
system.cpu0.commit.numCommittedDist::underflows            0      0.00%      0.00% # Number of insts commited each cycle (Count)
system.cpu0.commit.numCommittedDist::0        7649150     87.98%     87.98% # Number of insts commited each cycle (Count)
system.cpu0.commit.numCommittedDist::1         269090      3.09%     91.07% # Number of insts commited each cycle (Count)
system.cpu0.commit.numCommittedDist::2         120578      1.39%     92.46% # Number of insts commited each cycle (Count)
system.cpu0.commit.numCommittedDist::3         244890      2.82%     95.28% # Number of insts commited each cycle (Count)
system.cpu0.commit.numCommittedDist::4          48004      0.55%     95.83% # Number of insts commited each cycle (Count)
system.cpu0.commit.numCommittedDist::5         101463      1.17%     96.99% # Number of insts commited each cycle (Count)
system.cpu0.commit.numCommittedDist::6          16894      0.19%     97.19% # Number of insts commited each cycle (Count)
system.cpu0.commit.numCommittedDist::7          21207      0.24%     97.43% # Number of insts commited each cycle (Count)
system.cpu0.commit.numCommittedDist::8         223216      2.57%    100.00% # Number of insts commited each cycle (Count)
system.cpu0.commit.numCommittedDist::overflows            0      0.00%    100.00% # Number of insts commited each cycle (Count)
system.cpu0.commit.numCommittedDist::min_value            0                       # Number of insts commited each cycle (Count)
system.cpu0.commit.numCommittedDist::max_value            8                       # Number of insts commited each cycle (Count)
system.cpu0.commit.numCommittedDist::total      8694492                       # Number of insts commited each cycle (Count)
system.cpu0.commit.instsCommitted             2324205                       # Number of instructions committed (Count)
system.cpu0.commit.opsCommitted               3979788                       # Number of ops (including micro ops) committed (Count)
system.cpu0.commit.memRefs                     810669                       # Number of memory references committed (Count)
system.cpu0.commit.loads                       561963                       # Number of loads committed (Count)
system.cpu0.commit.amos                             0                       # Number of atomic instructions committed (Count)
system.cpu0.commit.membars                          2                       # Number of memory barriers committed (Count)
system.cpu0.commit.branches                    363225                       # Number of branches committed (Count)
system.cpu0.commit.vectorInstructions               0                       # Number of committed Vector instructions. (Count)
system.cpu0.commit.floating                    132349                       # Number of committed floating point instructions. (Count)
system.cpu0.commit.integer                    3920113                       # Number of committed integer instructions. (Count)
system.cpu0.commit.functionCalls                 9748                       # Number of function calls committed. (Count)
system.cpu0.commit.committedInstType_0::No_OpClass        10123      0.25%      0.25% # Class of committed instruction (Count)
system.cpu0.commit.committedInstType_0::IntAlu      3077142     77.32%     77.57% # Class of committed instruction (Count)
system.cpu0.commit.committedInstType_0::IntMult           29      0.00%     77.57% # Class of committed instruction (Count)
system.cpu0.commit.committedInstType_0::IntDiv        35987      0.90%     78.48% # Class of committed instruction (Count)
system.cpu0.commit.committedInstType_0::FloatAdd         3202      0.08%     78.56% # Class of committed instruction (Count)
system.cpu0.commit.committedInstType_0::FloatCmp            0      0.00%     78.56% # Class of committed instruction (Count)
system.cpu0.commit.committedInstType_0::FloatCvt         1504      0.04%     78.60% # Class of committed instruction (Count)
system.cpu0.commit.committedInstType_0::FloatMult            0      0.00%     78.60% # Class of committed instruction (Count)
system.cpu0.commit.committedInstType_0::FloatMultAcc            0      0.00%     78.60% # Class of committed instruction (Count)
system.cpu0.commit.committedInstType_0::FloatDiv            0      0.00%     78.60% # Class of committed instruction (Count)
system.cpu0.commit.committedInstType_0::FloatMisc            0      0.00%     78.60% # Class of committed instruction (Count)
system.cpu0.commit.committedInstType_0::FloatSqrt            0      0.00%     78.60% # Class of committed instruction (Count)
system.cpu0.commit.committedInstType_0::SimdAdd         6750      0.17%     78.77% # Class of committed instruction (Count)
system.cpu0.commit.committedInstType_0::SimdAddAcc            0      0.00%     78.77% # Class of committed instruction (Count)
system.cpu0.commit.committedInstType_0::SimdAlu        12220      0.31%     79.07% # Class of committed instruction (Count)
system.cpu0.commit.committedInstType_0::SimdCmp            0      0.00%     79.07% # Class of committed instruction (Count)
system.cpu0.commit.committedInstType_0::SimdCvt        13196      0.33%     79.41% # Class of committed instruction (Count)
system.cpu0.commit.committedInstType_0::SimdMisc         7208      0.18%     79.59% # Class of committed instruction (Count)
system.cpu0.commit.committedInstType_0::SimdMult            0      0.00%     79.59% # Class of committed instruction (Count)
system.cpu0.commit.committedInstType_0::SimdMultAcc            0      0.00%     79.59% # Class of committed instruction (Count)
system.cpu0.commit.committedInstType_0::SimdShift         1758      0.04%     79.63% # Class of committed instruction (Count)
system.cpu0.commit.committedInstType_0::SimdShiftAcc            0      0.00%     79.63% # Class of committed instruction (Count)
system.cpu0.commit.committedInstType_0::SimdDiv            0      0.00%     79.63% # Class of committed instruction (Count)
system.cpu0.commit.committedInstType_0::SimdSqrt            0      0.00%     79.63% # Class of committed instruction (Count)
system.cpu0.commit.committedInstType_0::SimdFloatAdd            0      0.00%     79.63% # Class of committed instruction (Count)
system.cpu0.commit.committedInstType_0::SimdFloatAlu            0      0.00%     79.63% # Class of committed instruction (Count)
system.cpu0.commit.committedInstType_0::SimdFloatCmp            0      0.00%     79.63% # Class of committed instruction (Count)
system.cpu0.commit.committedInstType_0::SimdFloatCvt            0      0.00%     79.63% # Class of committed instruction (Count)
system.cpu0.commit.committedInstType_0::SimdFloatDiv            0      0.00%     79.63% # Class of committed instruction (Count)
system.cpu0.commit.committedInstType_0::SimdFloatMisc            0      0.00%     79.63% # Class of committed instruction (Count)
system.cpu0.commit.committedInstType_0::SimdFloatMult            0      0.00%     79.63% # Class of committed instruction (Count)
system.cpu0.commit.committedInstType_0::SimdFloatMultAcc            0      0.00%     79.63% # Class of committed instruction (Count)
system.cpu0.commit.committedInstType_0::SimdFloatSqrt            0      0.00%     79.63% # Class of committed instruction (Count)
system.cpu0.commit.committedInstType_0::SimdReduceAdd            0      0.00%     79.63% # Class of committed instruction (Count)
system.cpu0.commit.committedInstType_0::SimdReduceAlu            0      0.00%     79.63% # Class of committed instruction (Count)
system.cpu0.commit.committedInstType_0::SimdReduceCmp            0      0.00%     79.63% # Class of committed instruction (Count)
system.cpu0.commit.committedInstType_0::SimdFloatReduceAdd            0      0.00%     79.63% # Class of committed instruction (Count)
system.cpu0.commit.committedInstType_0::SimdFloatReduceCmp            0      0.00%     79.63% # Class of committed instruction (Count)
system.cpu0.commit.committedInstType_0::SimdAes            0      0.00%     79.63% # Class of committed instruction (Count)
system.cpu0.commit.committedInstType_0::SimdAesMix            0      0.00%     79.63% # Class of committed instruction (Count)
system.cpu0.commit.committedInstType_0::SimdSha1Hash            0      0.00%     79.63% # Class of committed instruction (Count)
system.cpu0.commit.committedInstType_0::SimdSha1Hash2            0      0.00%     79.63% # Class of committed instruction (Count)
system.cpu0.commit.committedInstType_0::SimdSha256Hash            0      0.00%     79.63% # Class of committed instruction (Count)
system.cpu0.commit.committedInstType_0::SimdSha256Hash2            0      0.00%     79.63% # Class of committed instruction (Count)
system.cpu0.commit.committedInstType_0::SimdShaSigma2            0      0.00%     79.63% # Class of committed instruction (Count)
system.cpu0.commit.committedInstType_0::SimdShaSigma3            0      0.00%     79.63% # Class of committed instruction (Count)
system.cpu0.commit.committedInstType_0::SimdPredAlu            0      0.00%     79.63% # Class of committed instruction (Count)
system.cpu0.commit.committedInstType_0::MemRead       515540     12.95%     92.58% # Class of committed instruction (Count)
system.cpu0.commit.committedInstType_0::MemWrite       209518      5.26%     97.85% # Class of committed instruction (Count)
system.cpu0.commit.committedInstType_0::FloatMemRead        46423      1.17%     99.02% # Class of committed instruction (Count)
system.cpu0.commit.committedInstType_0::FloatMemWrite        39188      0.98%    100.00% # Class of committed instruction (Count)
system.cpu0.commit.committedInstType_0::IprAccess            0      0.00%    100.00% # Class of committed instruction (Count)
system.cpu0.commit.committedInstType_0::InstPrefetch            0      0.00%    100.00% # Class of committed instruction (Count)
system.cpu0.commit.committedInstType_0::total      3979788                       # Class of committed instruction (Count)
system.cpu0.commit.commitEligibleSamples       223216                       # number cycles where commit BW limit reached (Cycle)
system.cpu0.decode.idleCycles                  479899                       # Number of cycles decode is idle (Cycle)
system.cpu0.decode.blockedCycles              7604661                       # Number of cycles decode is blocked (Cycle)
system.cpu0.decode.runCycles                   532453                       # Number of cycles decode is running (Cycle)
system.cpu0.decode.unblockCycles               210273                       # Number of cycles decode is unblocking (Cycle)
system.cpu0.decode.squashCycles                 19155                       # Number of cycles decode is squashing (Cycle)
system.cpu0.decode.branchResolved              254083                       # Number of times decode resolved a branch (Count)
system.cpu0.decode.branchMispred                 1216                       # Number of times decode detected a branch misprediction (Count)
system.cpu0.decode.decodedInsts               5223662                       # Number of instructions handled by decode (Count)
system.cpu0.decode.squashedInsts                 5731                       # Number of squashed instructions handled by decode (Count)
system.cpu0.fetch.icacheStallCycles            478796                       # Number of cycles fetch is stalled on an Icache miss (Cycle)
system.cpu0.fetch.insts                       3173652                       # Number of instructions fetch has processed (Count)
system.cpu0.fetch.branches                     516526                       # Number of branches that fetch encountered (Count)
system.cpu0.fetch.predictedBranches            286965                       # Number of branches that fetch has predicted taken (Count)
system.cpu0.fetch.cycles                      8121850                       # Number of cycles fetch has run and was not squashing or blocked (Cycle)
system.cpu0.fetch.squashCycles                  40696                       # Number of cycles fetch has spent squashing (Cycle)
system.cpu0.fetch.miscStallCycles               13928                       # Number of cycles fetch has spent waiting on interrupts, or bad addresses, or out of MSHRs (Cycle)
system.cpu0.fetch.pendingTrapStallCycles        15353                       # Number of stall cycles due to pending traps (Cycle)
system.cpu0.fetch.icacheWaitRetryStallCycles       196166                       # Number of stall cycles due to full MSHR (Cycle)
system.cpu0.fetch.cacheLines                   285013                       # Number of cache lines fetched (Count)
system.cpu0.fetch.icacheSquashes                 4914                       # Number of outstanding Icache misses that were squashed (Count)
system.cpu0.fetch.nisnDist::samples           8846441                       # Number of instructions fetched each cycle (Total) (Count)
system.cpu0.fetch.nisnDist::mean             0.625426                       # Number of instructions fetched each cycle (Total) (Count)
system.cpu0.fetch.nisnDist::stdev            1.987218                       # Number of instructions fetched each cycle (Total) (Count)
system.cpu0.fetch.nisnDist::underflows              0      0.00%      0.00% # Number of instructions fetched each cycle (Total) (Count)
system.cpu0.fetch.nisnDist::0                 7931235     89.65%     89.65% # Number of instructions fetched each cycle (Total) (Count)
system.cpu0.fetch.nisnDist::1                   43646      0.49%     90.15% # Number of instructions fetched each cycle (Total) (Count)
system.cpu0.fetch.nisnDist::2                   41130      0.46%     90.61% # Number of instructions fetched each cycle (Total) (Count)
system.cpu0.fetch.nisnDist::3                   72733      0.82%     91.44% # Number of instructions fetched each cycle (Total) (Count)
system.cpu0.fetch.nisnDist::4                  139559      1.58%     93.01% # Number of instructions fetched each cycle (Total) (Count)
system.cpu0.fetch.nisnDist::5                   64209      0.73%     93.74% # Number of instructions fetched each cycle (Total) (Count)
system.cpu0.fetch.nisnDist::6                   36625      0.41%     94.15% # Number of instructions fetched each cycle (Total) (Count)
system.cpu0.fetch.nisnDist::7                   48776      0.55%     94.70% # Number of instructions fetched each cycle (Total) (Count)
system.cpu0.fetch.nisnDist::8                  468528      5.30%    100.00% # Number of instructions fetched each cycle (Total) (Count)
system.cpu0.fetch.nisnDist::overflows               0      0.00%    100.00% # Number of instructions fetched each cycle (Total) (Count)
system.cpu0.fetch.nisnDist::min_value               0                       # Number of instructions fetched each cycle (Total) (Count)
system.cpu0.fetch.nisnDist::max_value               8                       # Number of instructions fetched each cycle (Total) (Count)
system.cpu0.fetch.nisnDist::total             8846441                       # Number of instructions fetched each cycle (Total) (Count)
system.cpu0.fetch.branchRate                 0.051576                       # Number of branch fetches per cycle (Ratio)
system.cpu0.fetch.rate                       0.316894                       # Number of inst fetches per cycle ((Count/Cycle))
system.cpu0.iew.idleCycles                          0                       # Number of cycles IEW is idle (Cycle)
system.cpu0.iew.squashCycles                    19155                       # Number of cycles IEW is squashing (Cycle)
system.cpu0.iew.blockCycles                   4946305                       # Number of cycles IEW is blocking (Cycle)
system.cpu0.iew.unblockCycles                  142580                       # Number of cycles IEW is unblocking (Cycle)
system.cpu0.iew.dispatchedInsts               5038175                       # Number of instructions dispatched to IQ (Count)
system.cpu0.iew.dispSquashedInsts                1088                       # Number of squashed instructions skipped by dispatch (Count)
system.cpu0.iew.dispLoadInsts                  701413                       # Number of dispatched load instructions (Count)
system.cpu0.iew.dispStoreInsts                 287150                       # Number of dispatched store instructions (Count)
system.cpu0.iew.dispNonSpecInsts                  899                       # Number of dispatched non-speculative instructions (Count)
system.cpu0.iew.iqFullEvents                     7358                       # Number of times the IQ has become full, causing a stall (Count)
system.cpu0.iew.lsqFullEvents                  130052                       # Number of times the LSQ has become full, causing a stall (Count)
system.cpu0.iew.memOrderViolationEvents           183                       # Number of memory order violations (Count)
system.cpu0.iew.predictedTakenIncorrect          7930                       # Number of branches that were predicted taken incorrectly (Count)
system.cpu0.iew.predictedNotTakenIncorrect        12711                       # Number of branches that were predicted not taken incorrectly (Count)
system.cpu0.iew.branchMispredicts               20641                       # Number of branch mispredicts detected at execute (Count)
system.cpu0.iew.instsToCommit                 4623099                       # Cumulative count of insts sent to commit (Count)
system.cpu0.iew.writebackCount                4611302                       # Cumulative count of insts written-back (Count)
system.cpu0.iew.producerInst                  3632921                       # Number of instructions producing a value (Count)
system.cpu0.iew.consumerInst                  6701002                       # Number of instructions consuming a value (Count)
system.cpu0.iew.wbRate                       0.460446                       # Insts written-back per cycle ((Count/Cycle))
system.cpu0.iew.wbFanout                     0.542146                       # Average fanout of values written-back ((Count/Count))
system.cpu0.interrupts.clk_domain.clock          8000                       # Clock period in ticks (Tick)
system.cpu0.lsq0.forwLoads                      69328                       # Number of loads that had data forwarded from stores (Count)
system.cpu0.lsq0.squashedLoads                 139450                       # Number of loads squashed (Count)
system.cpu0.lsq0.ignoredResponses                  96                       # Number of memory responses ignored because the instruction is squashed (Count)
system.cpu0.lsq0.memOrderViolation                183                       # Number of memory ordering violations (Count)
system.cpu0.lsq0.squashedStores                 38444                       # Number of stores squashed (Count)
system.cpu0.lsq0.rescheduledLoads                 204                       # Number of loads that were rescheduled (Count)
system.cpu0.lsq0.blockedByCache                  2058                       # Number of times an access to memory failed due to the cache being blocked (Count)
system.cpu0.lsq0.loadToUse::samples            561885                       # Distribution of cycle latency between the first time a load is issued and its completion (Unspecified)
system.cpu0.lsq0.loadToUse::mean            57.476227                       # Distribution of cycle latency between the first time a load is issued and its completion (Unspecified)
system.cpu0.lsq0.loadToUse::stdev          201.730947                       # Distribution of cycle latency between the first time a load is issued and its completion (Unspecified)
system.cpu0.lsq0.loadToUse::0-9                516174     91.86%     91.86% # Distribution of cycle latency between the first time a load is issued and its completion (Unspecified)
system.cpu0.lsq0.loadToUse::10-19                  65      0.01%     91.88% # Distribution of cycle latency between the first time a load is issued and its completion (Unspecified)
system.cpu0.lsq0.loadToUse::20-29                  96      0.02%     91.89% # Distribution of cycle latency between the first time a load is issued and its completion (Unspecified)
system.cpu0.lsq0.loadToUse::30-39                 140      0.02%     91.92% # Distribution of cycle latency between the first time a load is issued and its completion (Unspecified)
system.cpu0.lsq0.loadToUse::40-49                 139      0.02%     91.94% # Distribution of cycle latency between the first time a load is issued and its completion (Unspecified)
system.cpu0.lsq0.loadToUse::50-59                 167      0.03%     91.97% # Distribution of cycle latency between the first time a load is issued and its completion (Unspecified)
system.cpu0.lsq0.loadToUse::60-69                 128      0.02%     92.00% # Distribution of cycle latency between the first time a load is issued and its completion (Unspecified)
system.cpu0.lsq0.loadToUse::70-79                  80      0.01%     92.01% # Distribution of cycle latency between the first time a load is issued and its completion (Unspecified)
system.cpu0.lsq0.loadToUse::80-89                  66      0.01%     92.02% # Distribution of cycle latency between the first time a load is issued and its completion (Unspecified)
system.cpu0.lsq0.loadToUse::90-99                  60      0.01%     92.03% # Distribution of cycle latency between the first time a load is issued and its completion (Unspecified)
system.cpu0.lsq0.loadToUse::100-109                64      0.01%     92.04% # Distribution of cycle latency between the first time a load is issued and its completion (Unspecified)
system.cpu0.lsq0.loadToUse::110-119                69      0.01%     92.06% # Distribution of cycle latency between the first time a load is issued and its completion (Unspecified)
system.cpu0.lsq0.loadToUse::120-129                74      0.01%     92.07% # Distribution of cycle latency between the first time a load is issued and its completion (Unspecified)
system.cpu0.lsq0.loadToUse::130-139                45      0.01%     92.08% # Distribution of cycle latency between the first time a load is issued and its completion (Unspecified)
system.cpu0.lsq0.loadToUse::140-149                62      0.01%     92.09% # Distribution of cycle latency between the first time a load is issued and its completion (Unspecified)
system.cpu0.lsq0.loadToUse::150-159                59      0.01%     92.10% # Distribution of cycle latency between the first time a load is issued and its completion (Unspecified)
system.cpu0.lsq0.loadToUse::160-169                70      0.01%     92.11% # Distribution of cycle latency between the first time a load is issued and its completion (Unspecified)
system.cpu0.lsq0.loadToUse::170-179               141      0.03%     92.14% # Distribution of cycle latency between the first time a load is issued and its completion (Unspecified)
system.cpu0.lsq0.loadToUse::180-189               586      0.10%     92.24% # Distribution of cycle latency between the first time a load is issued and its completion (Unspecified)
system.cpu0.lsq0.loadToUse::190-199                31      0.01%     92.25% # Distribution of cycle latency between the first time a load is issued and its completion (Unspecified)
system.cpu0.lsq0.loadToUse::200-209                57      0.01%     92.26% # Distribution of cycle latency between the first time a load is issued and its completion (Unspecified)
system.cpu0.lsq0.loadToUse::210-219                60      0.01%     92.27% # Distribution of cycle latency between the first time a load is issued and its completion (Unspecified)
system.cpu0.lsq0.loadToUse::220-229               116      0.02%     92.29% # Distribution of cycle latency between the first time a load is issued and its completion (Unspecified)
system.cpu0.lsq0.loadToUse::230-239               198      0.04%     92.32% # Distribution of cycle latency between the first time a load is issued and its completion (Unspecified)
system.cpu0.lsq0.loadToUse::240-249              1095      0.19%     92.52% # Distribution of cycle latency between the first time a load is issued and its completion (Unspecified)
system.cpu0.lsq0.loadToUse::250-259                53      0.01%     92.53% # Distribution of cycle latency between the first time a load is issued and its completion (Unspecified)
system.cpu0.lsq0.loadToUse::260-269                59      0.01%     92.54% # Distribution of cycle latency between the first time a load is issued and its completion (Unspecified)
system.cpu0.lsq0.loadToUse::270-279                91      0.02%     92.55% # Distribution of cycle latency between the first time a load is issued and its completion (Unspecified)
system.cpu0.lsq0.loadToUse::280-289               197      0.04%     92.59% # Distribution of cycle latency between the first time a load is issued and its completion (Unspecified)
system.cpu0.lsq0.loadToUse::290-299               248      0.04%     92.63% # Distribution of cycle latency between the first time a load is issued and its completion (Unspecified)
system.cpu0.lsq0.loadToUse::overflows           41395      7.37%    100.00% # Distribution of cycle latency between the first time a load is issued and its completion (Unspecified)
system.cpu0.lsq0.loadToUse::min_value               2                       # Distribution of cycle latency between the first time a load is issued and its completion (Unspecified)
system.cpu0.lsq0.loadToUse::max_value            2618                       # Distribution of cycle latency between the first time a load is issued and its completion (Unspecified)
system.cpu0.lsq0.loadToUse::total              561885                       # Distribution of cycle latency between the first time a load is issued and its completion (Unspecified)
system.cpu0.mmu.dtb.rdAccesses                 667591                       # TLB accesses on read requests (Count)
system.cpu0.mmu.dtb.wrAccesses                 274756                       # TLB accesses on write requests (Count)
system.cpu0.mmu.dtb.rdMisses                     3176                       # TLB misses on read requests (Count)
system.cpu0.mmu.dtb.wrMisses                      420                       # TLB misses on write requests (Count)
system.cpu0.mmu.dtb.walker.power_state.pwrStateResidencyTicks::UNDEFINED   5048294500                       # Cumulative time (in ticks) in various power states (Tick)
system.cpu0.mmu.itb.rdAccesses                      0                       # TLB accesses on read requests (Count)
system.cpu0.mmu.itb.wrAccesses                 287449                       # TLB accesses on write requests (Count)
system.cpu0.mmu.itb.rdMisses                        0                       # TLB misses on read requests (Count)
system.cpu0.mmu.itb.wrMisses                     3005                       # TLB misses on write requests (Count)
system.cpu0.mmu.itb.walker.power_state.pwrStateResidencyTicks::UNDEFINED   5048294500                       # Cumulative time (in ticks) in various power states (Tick)
system.cpu0.power_state.pwrStateResidencyTicks::ON   5048294500                       # Cumulative time (in ticks) in various power states (Tick)
system.cpu0.rename.squashCycles                 19155                       # Number of cycles rename is squashing (Cycle)
system.cpu0.rename.idleCycles                  561200                       # Number of cycles rename is idle (Cycle)
system.cpu0.rename.blockCycles                6526778                       # Number of cycles rename is blocking (Cycle)
system.cpu0.rename.serializeStallCycles         22264                       # count of cycles rename stalled for serializing inst (Cycle)
system.cpu0.rename.runCycles                   652193                       # Number of cycles rename is running (Cycle)
system.cpu0.rename.unblockCycles              1064851                       # Number of cycles rename is unblocking (Cycle)
system.cpu0.rename.renamedInsts               5142623                       # Number of instructions processed by rename (Count)
system.cpu0.rename.ROBFullEvents               104104                       # Number of times rename has blocked due to ROB full (Count)
system.cpu0.rename.IQFullEvents                241967                       # Number of times rename has blocked due to IQ full (Count)
system.cpu0.rename.LQFullEvents                152477                       # Number of times rename has blocked due to LQ full (Count)
system.cpu0.rename.SQFullEvents                609789                       # Number of times rename has blocked due to SQ full (Count)
system.cpu0.rename.fullRegistersEvents           2914                       # Number of times there has been no free registers (Count)
system.cpu0.rename.renamedOperands           10676361                       # Number of destination operands rename has renamed (Count)
system.cpu0.rename.lookups                   19334593                       # Number of register rename lookups that rename has made (Count)
system.cpu0.rename.intLookups                 7227270                       # Number of integer rename lookups (Count)
system.cpu0.rename.fpLookups                   216838                       # Number of floating rename lookups (Count)
system.cpu0.rename.committedMaps              8303310                       # Number of HB maps that are committed (Count)
system.cpu0.rename.undoneMaps                 2373051                       # Number of HB maps that are undone due to squashing (Count)
system.cpu0.rename.serializing                    874                       # count of serializing insts renamed (Count)
system.cpu0.rename.tempSerializing                859                       # count of temporary serializing insts renamed (Count)
system.cpu0.rename.skidInsts                  1010394                       # count of insts added to the skid buffer (Count)
system.cpu0.rob.reads                        13492590                       # The number of ROB reads (Count)
system.cpu0.rob.writes                       10210259                       # The number of ROB writes (Count)
system.cpu0.thread_0.numInsts                 2324205                       # Number of Instructions committed (Count)
system.cpu0.thread_0.numOps                   3979788                       # Number of Ops committed (Count)
system.cpu0.thread_0.numMemRefs                     0                       # Number of Memory References (Count)
system.cpu0.workload.numSyscalls                   63                       # Number of system calls (Count)
system.cpu1.numCycles                         9531188                       # Number of cpu cycles simulated (Cycle)
system.cpu1.numWorkItemsStarted                     0                       # Number of work items this cpu started (Count)
system.cpu1.numWorkItemsCompleted                   0                       # Number of work items this cpu completed (Count)
system.cpu1.instsAdded                        5037964                       # Number of instructions added to the IQ (excludes non-spec) (Count)
system.cpu1.nonSpecInstsAdded                    1094                       # Number of non-speculative instructions added to the IQ (Count)
system.cpu1.instsIssued                       4671259                       # Number of instructions issued (Count)
system.cpu1.squashedInstsIssued                  2850                       # Number of squashed instructions issued (Count)
system.cpu1.squashedInstsExamined             1059270                       # Number of squashed instructions iterated over during squash; mainly for profiling (Count)
system.cpu1.squashedOperandsExamined          2282261                       # Number of squashed operands that are examined and possibly removed from graph (Count)
system.cpu1.squashedNonSpecRemoved                241                       # Number of squashed non-spec instructions that were removed (Count)
system.cpu1.numIssuedDist::samples            8472340                       # Number of insts issued each cycle (Count)
system.cpu1.numIssuedDist::mean              0.551354                       # Number of insts issued each cycle (Count)
system.cpu1.numIssuedDist::stdev             1.484630                       # Number of insts issued each cycle (Count)
system.cpu1.numIssuedDist::underflows               0      0.00%      0.00% # Number of insts issued each cycle (Count)
system.cpu1.numIssuedDist::0                  7136346     84.23%     84.23% # Number of insts issued each cycle (Count)
system.cpu1.numIssuedDist::1                   224992      2.66%     86.89% # Number of insts issued each cycle (Count)
system.cpu1.numIssuedDist::2                   262440      3.10%     89.98% # Number of insts issued each cycle (Count)
system.cpu1.numIssuedDist::3                   251465      2.97%     92.95% # Number of insts issued each cycle (Count)
system.cpu1.numIssuedDist::4                   205535      2.43%     95.38% # Number of insts issued each cycle (Count)
system.cpu1.numIssuedDist::5                   153716      1.81%     97.19% # Number of insts issued each cycle (Count)
system.cpu1.numIssuedDist::6                   127756      1.51%     98.70% # Number of insts issued each cycle (Count)
system.cpu1.numIssuedDist::7                    70984      0.84%     99.54% # Number of insts issued each cycle (Count)
system.cpu1.numIssuedDist::8                    39106      0.46%    100.00% # Number of insts issued each cycle (Count)
system.cpu1.numIssuedDist::overflows                0      0.00%    100.00% # Number of insts issued each cycle (Count)
system.cpu1.numIssuedDist::min_value                0                       # Number of insts issued each cycle (Count)
system.cpu1.numIssuedDist::max_value                8                       # Number of insts issued each cycle (Count)
system.cpu1.numIssuedDist::total              8472340                       # Number of insts issued each cycle (Count)
system.cpu1.statFuBusy::No_OpClass                  0      0.00%      0.00% # attempts to use FU when none available (Count)
system.cpu1.statFuBusy::IntAlu                  42395     63.79%     63.79% # attempts to use FU when none available (Count)
system.cpu1.statFuBusy::IntMult                     0      0.00%     63.79% # attempts to use FU when none available (Count)
system.cpu1.statFuBusy::IntDiv                      0      0.00%     63.79% # attempts to use FU when none available (Count)
system.cpu1.statFuBusy::FloatAdd                    0      0.00%     63.79% # attempts to use FU when none available (Count)
system.cpu1.statFuBusy::FloatCmp                    0      0.00%     63.79% # attempts to use FU when none available (Count)
system.cpu1.statFuBusy::FloatCvt                    0      0.00%     63.79% # attempts to use FU when none available (Count)
system.cpu1.statFuBusy::FloatMult                   0      0.00%     63.79% # attempts to use FU when none available (Count)
system.cpu1.statFuBusy::FloatMultAcc                0      0.00%     63.79% # attempts to use FU when none available (Count)
system.cpu1.statFuBusy::FloatDiv                    0      0.00%     63.79% # attempts to use FU when none available (Count)
system.cpu1.statFuBusy::FloatMisc                   0      0.00%     63.79% # attempts to use FU when none available (Count)
system.cpu1.statFuBusy::FloatSqrt                   0      0.00%     63.79% # attempts to use FU when none available (Count)
system.cpu1.statFuBusy::SimdAdd                     0      0.00%     63.79% # attempts to use FU when none available (Count)
system.cpu1.statFuBusy::SimdAddAcc                  0      0.00%     63.79% # attempts to use FU when none available (Count)
system.cpu1.statFuBusy::SimdAlu                   123      0.19%     63.97% # attempts to use FU when none available (Count)
system.cpu1.statFuBusy::SimdCmp                     0      0.00%     63.97% # attempts to use FU when none available (Count)
system.cpu1.statFuBusy::SimdCvt                   172      0.26%     64.23% # attempts to use FU when none available (Count)
system.cpu1.statFuBusy::SimdMisc                    0      0.00%     64.23% # attempts to use FU when none available (Count)
system.cpu1.statFuBusy::SimdMult                    0      0.00%     64.23% # attempts to use FU when none available (Count)
system.cpu1.statFuBusy::SimdMultAcc                 0      0.00%     64.23% # attempts to use FU when none available (Count)
system.cpu1.statFuBusy::SimdShift                 206      0.31%     64.54% # attempts to use FU when none available (Count)
system.cpu1.statFuBusy::SimdShiftAcc                0      0.00%     64.54% # attempts to use FU when none available (Count)
system.cpu1.statFuBusy::SimdDiv                     0      0.00%     64.54% # attempts to use FU when none available (Count)
system.cpu1.statFuBusy::SimdSqrt                    0      0.00%     64.54% # attempts to use FU when none available (Count)
system.cpu1.statFuBusy::SimdFloatAdd                0      0.00%     64.54% # attempts to use FU when none available (Count)
system.cpu1.statFuBusy::SimdFloatAlu                0      0.00%     64.54% # attempts to use FU when none available (Count)
system.cpu1.statFuBusy::SimdFloatCmp                0      0.00%     64.54% # attempts to use FU when none available (Count)
system.cpu1.statFuBusy::SimdFloatCvt                0      0.00%     64.54% # attempts to use FU when none available (Count)
system.cpu1.statFuBusy::SimdFloatDiv                0      0.00%     64.54% # attempts to use FU when none available (Count)
system.cpu1.statFuBusy::SimdFloatMisc               0      0.00%     64.54% # attempts to use FU when none available (Count)
system.cpu1.statFuBusy::SimdFloatMult               0      0.00%     64.54% # attempts to use FU when none available (Count)
system.cpu1.statFuBusy::SimdFloatMultAcc            0      0.00%     64.54% # attempts to use FU when none available (Count)
system.cpu1.statFuBusy::SimdFloatSqrt               0      0.00%     64.54% # attempts to use FU when none available (Count)
system.cpu1.statFuBusy::SimdReduceAdd               0      0.00%     64.54% # attempts to use FU when none available (Count)
system.cpu1.statFuBusy::SimdReduceAlu               0      0.00%     64.54% # attempts to use FU when none available (Count)
system.cpu1.statFuBusy::SimdReduceCmp               0      0.00%     64.54% # attempts to use FU when none available (Count)
system.cpu1.statFuBusy::SimdFloatReduceAdd            0      0.00%     64.54% # attempts to use FU when none available (Count)
system.cpu1.statFuBusy::SimdFloatReduceCmp            0      0.00%     64.54% # attempts to use FU when none available (Count)
system.cpu1.statFuBusy::SimdAes                     0      0.00%     64.54% # attempts to use FU when none available (Count)
system.cpu1.statFuBusy::SimdAesMix                  0      0.00%     64.54% # attempts to use FU when none available (Count)
system.cpu1.statFuBusy::SimdSha1Hash                0      0.00%     64.54% # attempts to use FU when none available (Count)
system.cpu1.statFuBusy::SimdSha1Hash2               0      0.00%     64.54% # attempts to use FU when none available (Count)
system.cpu1.statFuBusy::SimdSha256Hash              0      0.00%     64.54% # attempts to use FU when none available (Count)
system.cpu1.statFuBusy::SimdSha256Hash2             0      0.00%     64.54% # attempts to use FU when none available (Count)
system.cpu1.statFuBusy::SimdShaSigma2               0      0.00%     64.54% # attempts to use FU when none available (Count)
system.cpu1.statFuBusy::SimdShaSigma3               0      0.00%     64.54% # attempts to use FU when none available (Count)
system.cpu1.statFuBusy::SimdPredAlu                 0      0.00%     64.54% # attempts to use FU when none available (Count)
system.cpu1.statFuBusy::MemRead                 12084     18.18%     82.72% # attempts to use FU when none available (Count)
system.cpu1.statFuBusy::MemWrite                 8071     12.14%     94.86% # attempts to use FU when none available (Count)
system.cpu1.statFuBusy::FloatMemRead             1676      2.52%     97.39% # attempts to use FU when none available (Count)
system.cpu1.statFuBusy::FloatMemWrite            1737      2.61%    100.00% # attempts to use FU when none available (Count)
system.cpu1.statFuBusy::IprAccess                   0      0.00%    100.00% # attempts to use FU when none available (Count)
system.cpu1.statFuBusy::InstPrefetch                0      0.00%    100.00% # attempts to use FU when none available (Count)
system.cpu1.statIssuedInstType_0::No_OpClass        17571      0.38%      0.38% # Number of instructions issued per FU type, per thread (Count)
system.cpu1.statIssuedInstType_0::IntAlu      3594987     76.96%     77.34% # Number of instructions issued per FU type, per thread (Count)
system.cpu1.statIssuedInstType_0::IntMult           37      0.00%     77.34% # Number of instructions issued per FU type, per thread (Count)
system.cpu1.statIssuedInstType_0::IntDiv        38341      0.82%     78.16% # Number of instructions issued per FU type, per thread (Count)
system.cpu1.statIssuedInstType_0::FloatAdd         4366      0.09%     78.25% # Number of instructions issued per FU type, per thread (Count)
system.cpu1.statIssuedInstType_0::FloatCmp            0      0.00%     78.25% # Number of instructions issued per FU type, per thread (Count)
system.cpu1.statIssuedInstType_0::FloatCvt         1688      0.04%     78.29% # Number of instructions issued per FU type, per thread (Count)
system.cpu1.statIssuedInstType_0::FloatMult            0      0.00%     78.29% # Number of instructions issued per FU type, per thread (Count)
system.cpu1.statIssuedInstType_0::FloatMultAcc            0      0.00%     78.29% # Number of instructions issued per FU type, per thread (Count)
system.cpu1.statIssuedInstType_0::FloatDiv            0      0.00%     78.29% # Number of instructions issued per FU type, per thread (Count)
system.cpu1.statIssuedInstType_0::FloatMisc            0      0.00%     78.29% # Number of instructions issued per FU type, per thread (Count)
system.cpu1.statIssuedInstType_0::FloatSqrt            0      0.00%     78.29% # Number of instructions issued per FU type, per thread (Count)
system.cpu1.statIssuedInstType_0::SimdAdd         8525      0.18%     78.47% # Number of instructions issued per FU type, per thread (Count)
system.cpu1.statIssuedInstType_0::SimdAddAcc            0      0.00%     78.47% # Number of instructions issued per FU type, per thread (Count)
system.cpu1.statIssuedInstType_0::SimdAlu        17261      0.37%     78.84% # Number of instructions issued per FU type, per thread (Count)
system.cpu1.statIssuedInstType_0::SimdCmp            0      0.00%     78.84% # Number of instructions issued per FU type, per thread (Count)
system.cpu1.statIssuedInstType_0::SimdCvt        18898      0.40%     79.24% # Number of instructions issued per FU type, per thread (Count)
system.cpu1.statIssuedInstType_0::SimdMisc         8992      0.19%     79.44% # Number of instructions issued per FU type, per thread (Count)
system.cpu1.statIssuedInstType_0::SimdMult            0      0.00%     79.44% # Number of instructions issued per FU type, per thread (Count)
system.cpu1.statIssuedInstType_0::SimdMultAcc            0      0.00%     79.44% # Number of instructions issued per FU type, per thread (Count)
system.cpu1.statIssuedInstType_0::SimdShift         2981      0.06%     79.50% # Number of instructions issued per FU type, per thread (Count)
system.cpu1.statIssuedInstType_0::SimdShiftAcc            0      0.00%     79.50% # Number of instructions issued per FU type, per thread (Count)
system.cpu1.statIssuedInstType_0::SimdDiv            0      0.00%     79.50% # Number of instructions issued per FU type, per thread (Count)
system.cpu1.statIssuedInstType_0::SimdSqrt            0      0.00%     79.50% # Number of instructions issued per FU type, per thread (Count)
system.cpu1.statIssuedInstType_0::SimdFloatAdd            0      0.00%     79.50% # Number of instructions issued per FU type, per thread (Count)
system.cpu1.statIssuedInstType_0::SimdFloatAlu            0      0.00%     79.50% # Number of instructions issued per FU type, per thread (Count)
system.cpu1.statIssuedInstType_0::SimdFloatCmp            0      0.00%     79.50% # Number of instructions issued per FU type, per thread (Count)
system.cpu1.statIssuedInstType_0::SimdFloatCvt            0      0.00%     79.50% # Number of instructions issued per FU type, per thread (Count)
system.cpu1.statIssuedInstType_0::SimdFloatDiv            0      0.00%     79.50% # Number of instructions issued per FU type, per thread (Count)
system.cpu1.statIssuedInstType_0::SimdFloatMisc            0      0.00%     79.50% # Number of instructions issued per FU type, per thread (Count)
system.cpu1.statIssuedInstType_0::SimdFloatMult            0      0.00%     79.50% # Number of instructions issued per FU type, per thread (Count)
system.cpu1.statIssuedInstType_0::SimdFloatMultAcc            0      0.00%     79.50% # Number of instructions issued per FU type, per thread (Count)
system.cpu1.statIssuedInstType_0::SimdFloatSqrt            0      0.00%     79.50% # Number of instructions issued per FU type, per thread (Count)
system.cpu1.statIssuedInstType_0::SimdReduceAdd            0      0.00%     79.50% # Number of instructions issued per FU type, per thread (Count)
system.cpu1.statIssuedInstType_0::SimdReduceAlu            0      0.00%     79.50% # Number of instructions issued per FU type, per thread (Count)
system.cpu1.statIssuedInstType_0::SimdReduceCmp            0      0.00%     79.50% # Number of instructions issued per FU type, per thread (Count)
system.cpu1.statIssuedInstType_0::SimdFloatReduceAdd            0      0.00%     79.50% # Number of instructions issued per FU type, per thread (Count)
system.cpu1.statIssuedInstType_0::SimdFloatReduceCmp            0      0.00%     79.50% # Number of instructions issued per FU type, per thread (Count)
system.cpu1.statIssuedInstType_0::SimdAes            0      0.00%     79.50% # Number of instructions issued per FU type, per thread (Count)
system.cpu1.statIssuedInstType_0::SimdAesMix            0      0.00%     79.50% # Number of instructions issued per FU type, per thread (Count)
system.cpu1.statIssuedInstType_0::SimdSha1Hash            0      0.00%     79.50% # Number of instructions issued per FU type, per thread (Count)
system.cpu1.statIssuedInstType_0::SimdSha1Hash2            0      0.00%     79.50% # Number of instructions issued per FU type, per thread (Count)
system.cpu1.statIssuedInstType_0::SimdSha256Hash            0      0.00%     79.50% # Number of instructions issued per FU type, per thread (Count)
system.cpu1.statIssuedInstType_0::SimdSha256Hash2            0      0.00%     79.50% # Number of instructions issued per FU type, per thread (Count)
system.cpu1.statIssuedInstType_0::SimdShaSigma2            0      0.00%     79.50% # Number of instructions issued per FU type, per thread (Count)
system.cpu1.statIssuedInstType_0::SimdShaSigma3            0      0.00%     79.50% # Number of instructions issued per FU type, per thread (Count)
system.cpu1.statIssuedInstType_0::SimdPredAlu            0      0.00%     79.50% # Number of instructions issued per FU type, per thread (Count)
system.cpu1.statIssuedInstType_0::MemRead       621434     13.30%     92.80% # Number of instructions issued per FU type, per thread (Count)
system.cpu1.statIssuedInstType_0::MemWrite       233466      5.00%     97.80% # Number of instructions issued per FU type, per thread (Count)
system.cpu1.statIssuedInstType_0::FloatMemRead        59357      1.27%     99.07% # Number of instructions issued per FU type, per thread (Count)
system.cpu1.statIssuedInstType_0::FloatMemWrite        43355      0.93%    100.00% # Number of instructions issued per FU type, per thread (Count)
system.cpu1.statIssuedInstType_0::IprAccess            0      0.00%    100.00% # Number of instructions issued per FU type, per thread (Count)
system.cpu1.statIssuedInstType_0::InstPrefetch            0      0.00%    100.00% # Number of instructions issued per FU type, per thread (Count)
system.cpu1.statIssuedInstType_0::total       4671259                       # Number of instructions issued per FU type, per thread (Count)
system.cpu1.issueRate                        0.490102                       # Inst issue rate ((Count/Cycle))
system.cpu1.fuBusy                              66464                       # FU busy when requested (Count)
system.cpu1.fuBusyRate                       0.014228                       # FU busy rate (busy events/executed inst) ((Count/Count))
system.cpu1.intInstQueueReads                17546814                       # Number of integer instruction queue reads (Count)
system.cpu1.intInstQueueWrites                5868681                       # Number of integer instruction queue writes (Count)
system.cpu1.intInstQueueWakeupAccesses        4448669                       # Number of integer instruction queue wakeup accesses (Count)
system.cpu1.fpInstQueueReads                   337358                       # Number of floating instruction queue reads (Count)
system.cpu1.fpInstQueueWrites                  229827                       # Number of floating instruction queue writes (Count)
system.cpu1.fpInstQueueWakeupAccesses          162577                       # Number of floating instruction queue wakeup accesses (Count)
system.cpu1.vecInstQueueReads                       0                       # Number of vector instruction queue reads (Count)
system.cpu1.vecInstQueueWrites                      0                       # Number of vector instruction queue writes (Count)
system.cpu1.vecInstQueueWakeupAccesses              0                       # Number of vector instruction queue wakeup accesses (Count)
system.cpu1.intAluAccesses                    4549663                       # Number of integer alu accesses (Count)
system.cpu1.fpAluAccesses                      170489                       # Number of floating point alu accesses (Count)
system.cpu1.vecAluAccesses                          0                       # Number of vector alu accesses (Count)
system.cpu1.numInsts                          4640646                       # Number of executed instructions (Count)
system.cpu1.numLoadInsts                       673025                       # Number of load instructions executed (Count)
system.cpu1.numSquashedInsts                    30613                       # Number of squashed instructions skipped in execute (Count)
system.cpu1.numSwp                                  0                       # Number of swp insts executed (Count)
system.cpu1.numNop                                  0                       # Number of nop insts executed (Count)
system.cpu1.numRefs                            947775                       # Number of memory reference insts executed (Count)
system.cpu1.numBranches                        399443                       # Number of branches executed (Count)
[...]
system.ruby.network.ext_out_link_utilization      4216230                       (Unspecified)
system.ruby.network.flit_network_latency | 80065267000                       |209843774000                       | 19611626500                       (Unspecified)
system.ruby.network.flit_queueing_latency |  2182214000                       |  2161071500                       |   148670000                       (Unspecified)
system.ruby.network.flits_injected       |      999784     23.71%     23.71% |     2919111     69.24%     92.95% |      297341      7.05%    100.00% (Unspecified)
system.ruby.network.flits_injected::total      4216236                       (Unspecified)
system.ruby.network.flits_received       |      999784     23.71%     23.71% |     2919106     69.23%     92.95% |      297340      7.05%    100.00% (Unspecified)
system.ruby.network.flits_received::total      4216230                       (Unspecified)
system.ruby.network.int_link_utilization     10455765                       (Unspecified)
system.ruby.network.packet_network_latency | 59575389500                       | 69335947000                       | 19611626500                       (Unspecified)
system.ruby.network.packet_queueing_latency |  1776010000                       |   562301500                       |   148670000                       (Unspecified)
system.ruby.network.packets_injected     |      815212     42.29%     42.29% |      815211     42.29%     84.58% |      297341     15.42%    100.00% (Unspecified)
system.ruby.network.packets_injected::total      1927764                       (Unspecified)
system.ruby.network.packets_received     |      815212     42.29%     42.29% |      815210     42.29%     84.58% |      297340     15.42%    100.00% (Unspecified)
system.ruby.network.packets_received::total      1927762                       (Unspecified)
system.ruby.network.routers00.Var_1                 0                       (Unspecified)
system.ruby.network.routers00.Var_2                 0                       (Unspecified)
system.ruby.network.routers00.Var_3                 0                       (Unspecified)
system.ruby.network.routers00.all_counts            0                       (Unspecified)
system.ruby.network.routers00.buffer_reads       668374                       (Unspecified)
system.ruby.network.routers00.buffer_writes       668374                       (Unspecified)
system.ruby.network.routers00.crossbar_activity       668374                       (Unspecified)
system.ruby.network.routers00.detour_counts            0                       (Unspecified)
system.ruby.network.routers00.regular_var            0                       (Unspecified)
system.ruby.network.routers00.risk_counts            0                       (Unspecified)
system.ruby.network.routers00.sw_input_arbiter_activity       673138                       (Unspecified)
system.ruby.network.routers00.sw_output_arbiter_activity       668374                       (Unspecified)
system.ruby.network.routers01.Var_1                 0                       (Unspecified)
system.ruby.network.routers01.Var_2                 0                       (Unspecified)
system.ruby.network.routers01.Var_3                 0                       (Unspecified)
system.ruby.network.routers01.all_counts            0                       (Unspecified)
system.ruby.network.routers01.buffer_reads       933378                       (Unspecified)
system.ruby.network.routers01.buffer_writes       933378                       (Unspecified)
system.ruby.network.routers01.crossbar_activity       933378                       (Unspecified)
system.ruby.network.routers01.detour_counts            0                       (Unspecified)
system.ruby.network.routers01.regular_var            0                       (Unspecified)
system.ruby.network.routers01.risk_counts            0                       (Unspecified)
system.ruby.network.routers01.sw_input_arbiter_activity       943566                       (Unspecified)
system.ruby.network.routers01.sw_output_arbiter_activity       933378                       (Unspecified)
system.ruby.network.routers02.Var_1                 0                       (Unspecified)
system.ruby.network.routers02.Var_2                 0                       (Unspecified)
system.ruby.network.routers02.Var_3                 0                       (Unspecified)
system.ruby.network.routers02.all_counts            0                       (Unspecified)
system.ruby.network.routers02.buffer_reads       935206                       (Unspecified)
system.ruby.network.routers02.buffer_writes       935206                       (Unspecified)
system.ruby.network.routers02.crossbar_activity       935206                       (Unspecified)
system.ruby.network.routers02.detour_counts            0                       (Unspecified)
system.ruby.network.routers02.regular_var            0                       (Unspecified)
system.ruby.network.routers02.risk_counts            0                       (Unspecified)
system.ruby.network.routers02.sw_input_arbiter_activity       944902                       (Unspecified)
system.ruby.network.routers02.sw_output_arbiter_activity       935206                       (Unspecified)
system.ruby.network.routers03.Var_1                 0                       (Unspecified)
system.ruby.network.routers03.Var_2                 0                       (Unspecified)
system.ruby.network.routers03.Var_3                 0                       (Unspecified)
system.ruby.network.routers03.all_counts            0                       (Unspecified)
system.ruby.network.routers03.buffer_reads       658036                       (Unspecified)
system.ruby.network.routers03.buffer_writes       658036                       (Unspecified)
system.ruby.network.routers03.crossbar_activity       658036                       (Unspecified)
system.ruby.network.routers03.detour_counts            0                       (Unspecified)
system.ruby.network.routers03.regular_var            0                       (Unspecified)
system.ruby.network.routers03.risk_counts            0                       (Unspecified)
system.ruby.network.routers03.sw_input_arbiter_activity       662383                       (Unspecified)
system.ruby.network.routers03.sw_output_arbiter_activity       658036                       (Unspecified)
system.ruby.network.routers04.Var_1                 0                       (Unspecified)
system.ruby.network.routers04.Var_2                 0                       (Unspecified)
system.ruby.network.routers04.Var_3                 0                       (Unspecified)
system.ruby.network.routers04.all_counts            0                       (Unspecified)
system.ruby.network.routers04.buffer_reads       913776                       (Unspecified)
system.ruby.network.routers04.buffer_writes       913776                       (Unspecified)
system.ruby.network.routers04.crossbar_activity       913776                       (Unspecified)
system.ruby.network.routers04.detour_counts            0                       (Unspecified)
system.ruby.network.routers04.regular_var            0                       (Unspecified)
system.ruby.network.routers04.risk_counts            0                       (Unspecified)
system.ruby.network.routers04.sw_input_arbiter_activity       923280                       (Unspecified)
system.ruby.network.routers04.sw_output_arbiter_activity       913776                       (Unspecified)
system.ruby.network.routers05.Var_1                 0                       (Unspecified)
system.ruby.network.routers05.Var_2                 0                       (Unspecified)
system.ruby.network.routers05.Var_3                 0                       (Unspecified)
system.ruby.network.routers05.all_counts            0                       (Unspecified)
system.ruby.network.routers05.buffer_reads      1178363                       (Unspecified)
system.ruby.network.routers05.buffer_writes      1178363                       (Unspecified)
system.ruby.network.routers05.crossbar_activity      1178363                       (Unspecified)
system.ruby.network.routers05.detour_counts            0                       (Unspecified)
system.ruby.network.routers05.regular_var            0                       (Unspecified)
system.ruby.network.routers05.risk_counts            0                       (Unspecified)
system.ruby.network.routers05.sw_input_arbiter_activity      1193914                       (Unspecified)
system.ruby.network.routers05.sw_output_arbiter_activity      1178363                       (Unspecified)
system.ruby.network.routers06.Var_1                 0                       (Unspecified)
system.ruby.network.routers06.Var_2                 0                       (Unspecified)
system.ruby.network.routers06.Var_3                 0                       (Unspecified)
system.ruby.network.routers06.all_counts            0                       (Unspecified)
system.ruby.network.routers06.buffer_reads      1177422                       (Unspecified)
system.ruby.network.routers06.buffer_writes      1177422                       (Unspecified)
system.ruby.network.routers06.crossbar_activity      1177422                       (Unspecified)
system.ruby.network.routers06.detour_counts            0                       (Unspecified)
system.ruby.network.routers06.regular_var            0                       (Unspecified)
system.ruby.network.routers06.risk_counts            0                       (Unspecified)
system.ruby.network.routers06.sw_input_arbiter_activity      1193498                       (Unspecified)
system.ruby.network.routers06.sw_output_arbiter_activity      1177422                       (Unspecified)
system.ruby.network.routers07.Var_1                 0                       (Unspecified)
system.ruby.network.routers07.Var_2                 0                       (Unspecified)
system.ruby.network.routers07.Var_3                 0                       (Unspecified)
system.ruby.network.routers07.all_counts            0                       (Unspecified)
system.ruby.network.routers07.buffer_reads       900841                       (Unspecified)
system.ruby.network.routers07.buffer_writes       900841                       (Unspecified)
system.ruby.network.routers07.crossbar_activity       900841                       (Unspecified)
system.ruby.network.routers07.detour_counts            0                       (Unspecified)
system.ruby.network.routers07.regular_var            0                       (Unspecified)
system.ruby.network.routers07.risk_counts            0                       (Unspecified)
system.ruby.network.routers07.sw_input_arbiter_activity       910281                       (Unspecified)
system.ruby.network.routers07.sw_output_arbiter_activity       900841                       (Unspecified)
system.ruby.network.routers08.Var_1                 0                       (Unspecified)
system.ruby.network.routers08.Var_2                 0                       (Unspecified)
system.ruby.network.routers08.Var_3                 0                       (Unspecified)
system.ruby.network.routers08.all_counts            0                       (Unspecified)
system.ruby.network.routers08.buffer_reads       910696                       (Unspecified)
system.ruby.network.routers08.buffer_writes       910696                       (Unspecified)
system.ruby.network.routers08.crossbar_activity       910696                       (Unspecified)
system.ruby.network.routers08.detour_counts            0                       (Unspecified)
system.ruby.network.routers08.regular_var            0                       (Unspecified)
system.ruby.network.routers08.risk_counts            0                       (Unspecified)
system.ruby.network.routers08.sw_input_arbiter_activity       920200                       (Unspecified)
system.ruby.network.routers08.sw_output_arbiter_activity       910696                       (Unspecified)
system.ruby.network.routers09.Var_1                 0                       (Unspecified)
system.ruby.network.routers09.Var_2                 0                       (Unspecified)
system.ruby.network.routers09.Var_3                 0                       (Unspecified)
system.ruby.network.routers09.all_counts            0                       (Unspecified)
system.ruby.network.routers09.buffer_reads      1179441                       (Unspecified)
system.ruby.network.routers09.buffer_writes      1179441                       (Unspecified)
system.ruby.network.routers09.crossbar_activity      1179441                       (Unspecified)
system.ruby.network.routers09.detour_counts            0                       (Unspecified)
system.ruby.network.routers09.regular_var            0                       (Unspecified)
system.ruby.network.routers09.risk_counts            0                       (Unspecified)
system.ruby.network.routers09.sw_input_arbiter_activity      1194815                       (Unspecified)
system.ruby.network.routers09.sw_output_arbiter_activity      1179441                       (Unspecified)
system.ruby.network.routers10.Var_1                 0                       (Unspecified)
system.ruby.network.routers10.Var_2                 0                       (Unspecified)
system.ruby.network.routers10.Var_3                 0                       (Unspecified)
system.ruby.network.routers10.all_counts            0                       (Unspecified)
system.ruby.network.routers10.buffer_reads      1176151                       (Unspecified)
system.ruby.network.routers10.buffer_writes      1176151                       (Unspecified)
system.ruby.network.routers10.crossbar_activity      1176151                       (Unspecified)
system.ruby.network.routers10.detour_counts            0                       (Unspecified)
system.ruby.network.routers10.regular_var            0                       (Unspecified)
system.ruby.network.routers10.risk_counts            0                       (Unspecified)
system.ruby.network.routers10.sw_input_arbiter_activity      1191007                       (Unspecified)
system.ruby.network.routers10.sw_output_arbiter_activity      1176151                       (Unspecified)
system.ruby.network.routers11.Var_1                 0                       (Unspecified)
system.ruby.network.routers11.Var_2                 0                       (Unspecified)
system.ruby.network.routers11.Var_3                 0                       (Unspecified)
system.ruby.network.routers11.all_counts            0                       (Unspecified)
system.ruby.network.routers11.buffer_reads       896854                       (Unspecified)
system.ruby.network.routers11.buffer_writes       896854                       (Unspecified)
system.ruby.network.routers11.crossbar_activity       896854                       (Unspecified)
system.ruby.network.routers11.detour_counts            0                       (Unspecified)
system.ruby.network.routers11.regular_var            0                       (Unspecified)
system.ruby.network.routers11.risk_counts            0                       (Unspecified)
system.ruby.network.routers11.sw_input_arbiter_activity       906024                       (Unspecified)
system.ruby.network.routers11.sw_output_arbiter_activity       896854                       (Unspecified)
system.ruby.network.routers12.Var_1                 0                       (Unspecified)
system.ruby.network.routers12.Var_2                 0                       (Unspecified)
system.ruby.network.routers12.Var_3                 0                       (Unspecified)
system.ruby.network.routers12.all_counts            0                       (Unspecified)
system.ruby.network.routers12.buffer_reads       655784                       (Unspecified)
system.ruby.network.routers12.buffer_writes       655784                       (Unspecified)
system.ruby.network.routers12.crossbar_activity       655784                       (Unspecified)
system.ruby.network.routers12.detour_counts            0                       (Unspecified)
system.ruby.network.routers12.regular_var            0                       (Unspecified)
system.ruby.network.routers12.risk_counts            0                       (Unspecified)
system.ruby.network.routers12.sw_input_arbiter_activity       659942                       (Unspecified)
system.ruby.network.routers12.sw_output_arbiter_activity       655784                       (Unspecified)
system.ruby.network.routers13.Var_1                 0                       (Unspecified)
system.ruby.network.routers13.Var_2                 0                       (Unspecified)
system.ruby.network.routers13.Var_3                 0                       (Unspecified)
system.ruby.network.routers13.all_counts            0                       (Unspecified)
system.ruby.network.routers13.buffer_reads       922177                       (Unspecified)
system.ruby.network.routers13.buffer_writes       922177                       (Unspecified)
system.ruby.network.routers13.crossbar_activity       922177                       (Unspecified)
system.ruby.network.routers13.detour_counts            0                       (Unspecified)
system.ruby.network.routers13.regular_var            0                       (Unspecified)
system.ruby.network.routers13.risk_counts            0                       (Unspecified)
system.ruby.network.routers13.sw_input_arbiter_activity       931791                       (Unspecified)
system.ruby.network.routers13.sw_output_arbiter_activity       922177                       (Unspecified)
system.ruby.network.routers14.Var_1                 0                       (Unspecified)
system.ruby.network.routers14.Var_2                 0                       (Unspecified)
system.ruby.network.routers14.Var_3                 0                       (Unspecified)
system.ruby.network.routers14.all_counts            0                       (Unspecified)
system.ruby.network.routers14.buffer_reads       916383                       (Unspecified)
system.ruby.network.routers14.buffer_writes       916383                       (Unspecified)
system.ruby.network.routers14.crossbar_activity       916383                       (Unspecified)
system.ruby.network.routers14.detour_counts            0                       (Unspecified)
system.ruby.network.routers14.regular_var            0                       (Unspecified)
system.ruby.network.routers14.risk_counts            0                       (Unspecified)
system.ruby.network.routers14.sw_input_arbiter_activity       925777                       (Unspecified)
system.ruby.network.routers14.sw_output_arbiter_activity       916383                       (Unspecified)
system.ruby.network.routers15.Var_1                 0                       (Unspecified)
system.ruby.network.routers15.Var_2                 0                       (Unspecified)
system.ruby.network.routers15.Var_3                 0                       (Unspecified)
system.ruby.network.routers15.all_counts            0                       (Unspecified)
system.ruby.network.routers15.buffer_reads       649113                       (Unspecified)
system.ruby.network.routers15.buffer_writes       649113                       (Unspecified)
system.ruby.network.routers15.crossbar_activity       649113                       (Unspecified)
system.ruby.network.routers15.detour_counts            0                       (Unspecified)
system.ruby.network.routers15.regular_var            0                       (Unspecified)
system.ruby.network.routers15.risk_counts            0                       (Unspecified)
system.ruby.network.routers15.sw_input_arbiter_activity       653334                       (Unspecified)
system.ruby.network.routers15.sw_output_arbiter_activity       649113                       (Unspecified)

---------- End Simulation Statistics   ----------
