
---------- Begin Simulation Statistics ----------
simSeconds                                   0.006118                       # Number of seconds simulated (Second)
simTicks                                   6117571000                       # Number of ticks simulated (Tick)
finalTick                                  6117571000                       # Number of ticks from beginning of simulation (restored from checkpoints and never reset) (Tick)
simFreq                                  1000000000000                       # The number of ticks per simulated second ((Tick/Second))
hostSeconds                                   1387.73                       # Real time elapsed on the host (Second)
hostTickRate                                  4408324                       # The number of ticks simulated per host second (ticks/s) ((Tick/Second))
hostMemory                                   11458220                       # Number of bytes of host memory used (Byte)
simInsts                                     82226288                       # Number of instructions simulated (Count)
simOps                                      125167296                       # Number of ops (including micro ops) simulated (Count)
hostInstRate                                    59252                       # Simulator instruction rate (inst/s) ((Count/Second))
hostOpRate                                      90196                       # Simulator op (including micro ops) rate (op/s) ((Count/Second))
system.clk_domain.clock                          1000                       # Clock period in ticks (Tick)
system.cpu0.numCycles                        12142427                       # Number of cpu cycles simulated (Cycle)
system.cpu0.numWorkItemsStarted                     0                       # Number of work items this cpu started (Count)
system.cpu0.numWorkItemsCompleted                   0                       # Number of work items this cpu completed (Count)
system.cpu0.instsAdded                        8984621                       # Number of instructions added to the IQ (excludes non-spec) (Count)
system.cpu0.nonSpecInstsAdded                    1082                       # Number of non-speculative instructions added to the IQ (Count)
system.cpu0.instsIssued                       8562522                       # Number of instructions issued (Count)
system.cpu0.squashedInstsIssued                  2813                       # Number of squashed instructions issued (Count)
system.cpu0.squashedInstsExamined             1162747                       # Number of squashed instructions iterated over during squash; mainly for profiling (Count)
system.cpu0.squashedOperandsExamined          2498525                       # Number of squashed operands that are examined and possibly removed from graph (Count)
system.cpu0.squashedNonSpecRemoved                229                       # Number of squashed non-spec instructions that were removed (Count)
system.cpu0.numIssuedDist::samples           10973267                       # Number of insts issued each cycle (Count)
system.cpu0.numIssuedDist::mean              0.780307                       # Number of insts issued each cycle (Count)
system.cpu0.numIssuedDist::stdev             1.586141                       # Number of insts issued each cycle (Count)
system.cpu0.numIssuedDist::underflows               0      0.00%      0.00% # Number of insts issued each cycle (Count)
system.cpu0.numIssuedDist::0                  8060716     73.46%     73.46% # Number of insts issued each cycle (Count)
system.cpu0.numIssuedDist::1                   681296      6.21%     79.67% # Number of insts issued each cycle (Count)
system.cpu0.numIssuedDist::2                   825281      7.52%     87.19% # Number of insts issued each cycle (Count)
system.cpu0.numIssuedDist::3                   458248      4.18%     91.36% # Number of insts issued each cycle (Count)
system.cpu0.numIssuedDist::4                   364574      3.32%     94.69% # Number of insts issued each cycle (Count)
system.cpu0.numIssuedDist::5                   291489      2.66%     97.34% # Number of insts issued each cycle (Count)
system.cpu0.numIssuedDist::6                   145896      1.33%     98.67% # Number of insts issued each cycle (Count)
system.cpu0.numIssuedDist::7                   101333      0.92%     99.60% # Number of insts issued each cycle (Count)
system.cpu0.numIssuedDist::8                    44434      0.40%    100.00% # Number of insts issued each cycle (Count)
system.cpu0.numIssuedDist::overflows                0      0.00%    100.00% # Number of insts issued each cycle (Count)
system.cpu0.numIssuedDist::min_value                0                       # Number of insts issued each cycle (Count)
system.cpu0.numIssuedDist::max_value                8                       # Number of insts issued each cycle (Count)
system.cpu0.numIssuedDist::total             10973267                       # Number of insts issued each cycle (Count)
system.cpu0.statFuBusy::No_OpClass                  0      0.00%      0.00% # attempts to use FU when none available (Count)
system.cpu0.statFuBusy::IntAlu                  42056     42.07%     42.07% # attempts to use FU when none available (Count)
system.cpu0.statFuBusy::IntMult                     0      0.00%     42.07% # attempts to use FU when none available (Count)
system.cpu0.statFuBusy::IntDiv                      0      0.00%     42.07% # attempts to use FU when none available (Count)
system.cpu0.statFuBusy::FloatAdd                    0      0.00%     42.07% # attempts to use FU when none available (Count)
system.cpu0.statFuBusy::FloatCmp                    0      0.00%     42.07% # attempts to use FU when none available (Count)
system.cpu0.statFuBusy::FloatCvt                    2      0.00%     42.08% # attempts to use FU when none available (Count)
system.cpu0.statFuBusy::FloatMult                   0      0.00%     42.08% # attempts to use FU when none available (Count)
system.cpu0.statFuBusy::FloatMultAcc                0      0.00%     42.08% # attempts to use FU when none available (Count)
system.cpu0.statFuBusy::FloatDiv                    0      0.00%     42.08% # attempts to use FU when none available (Count)
system.cpu0.statFuBusy::FloatMisc                   0      0.00%     42.08% # attempts to use FU when none available (Count)
system.cpu0.statFuBusy::FloatSqrt                   0      0.00%     42.08% # attempts to use FU when none available (Count)
system.cpu0.statFuBusy::SimdAdd                     0      0.00%     42.08% # attempts to use FU when none available (Count)
system.cpu0.statFuBusy::SimdAddAcc                  0      0.00%     42.08% # attempts to use FU when none available (Count)
system.cpu0.statFuBusy::SimdAlu                   121      0.12%     42.20% # attempts to use FU when none available (Count)
system.cpu0.statFuBusy::SimdCmp                     0      0.00%     42.20% # attempts to use FU when none available (Count)
system.cpu0.statFuBusy::SimdCvt                   138      0.14%     42.34% # attempts to use FU when none available (Count)
system.cpu0.statFuBusy::SimdMisc                    0      0.00%     42.34% # attempts to use FU when none available (Count)
system.cpu0.statFuBusy::SimdMult                    0      0.00%     42.34% # attempts to use FU when none available (Count)
system.cpu0.statFuBusy::SimdMultAcc                 0      0.00%     42.34% # attempts to use FU when none available (Count)
system.cpu0.statFuBusy::SimdShift                 142      0.14%     42.48% # attempts to use FU when none available (Count)
system.cpu0.statFuBusy::SimdShiftAcc                0      0.00%     42.48% # attempts to use FU when none available (Count)
system.cpu0.statFuBusy::SimdDiv                     0      0.00%     42.48% # attempts to use FU when none available (Count)
system.cpu0.statFuBusy::SimdSqrt                    0      0.00%     42.48% # attempts to use FU when none available (Count)
system.cpu0.statFuBusy::SimdFloatAdd                0      0.00%     42.48% # attempts to use FU when none available (Count)
system.cpu0.statFuBusy::SimdFloatAlu                0      0.00%     42.48% # attempts to use FU when none available (Count)
system.cpu0.statFuBusy::SimdFloatCmp                0      0.00%     42.48% # attempts to use FU when none available (Count)
system.cpu0.statFuBusy::SimdFloatCvt                0      0.00%     42.48% # attempts to use FU when none available (Count)
system.cpu0.statFuBusy::SimdFloatDiv                0      0.00%     42.48% # attempts to use FU when none available (Count)
system.cpu0.statFuBusy::SimdFloatMisc               0      0.00%     42.48% # attempts to use FU when none available (Count)
system.cpu0.statFuBusy::SimdFloatMult               0      0.00%     42.48% # attempts to use FU when none available (Count)
system.cpu0.statFuBusy::SimdFloatMultAcc            0      0.00%     42.48% # attempts to use FU when none available (Count)
system.cpu0.statFuBusy::SimdFloatSqrt               0      0.00%     42.48% # attempts to use FU when none available (Count)
system.cpu0.statFuBusy::SimdReduceAdd               0      0.00%     42.48% # attempts to use FU when none available (Count)
system.cpu0.statFuBusy::SimdReduceAlu               0      0.00%     42.48% # attempts to use FU when none available (Count)
system.cpu0.statFuBusy::SimdReduceCmp               0      0.00%     42.48% # attempts to use FU when none available (Count)
system.cpu0.statFuBusy::SimdFloatReduceAdd            0      0.00%     42.48% # attempts to use FU when none available (Count)
system.cpu0.statFuBusy::SimdFloatReduceCmp            0      0.00%     42.48% # attempts to use FU when none available (Count)
system.cpu0.statFuBusy::SimdAes                     0      0.00%     42.48% # attempts to use FU when none available (Count)
system.cpu0.statFuBusy::SimdAesMix                  0      0.00%     42.48% # attempts to use FU when none available (Count)
system.cpu0.statFuBusy::SimdSha1Hash                0      0.00%     42.48% # attempts to use FU when none available (Count)
system.cpu0.statFuBusy::SimdSha1Hash2               0      0.00%     42.48% # attempts to use FU when none available (Count)
system.cpu0.statFuBusy::SimdSha256Hash              0      0.00%     42.48% # attempts to use FU when none available (Count)
system.cpu0.statFuBusy::SimdSha256Hash2             0      0.00%     42.48% # attempts to use FU when none available (Count)
system.cpu0.statFuBusy::SimdShaSigma2               0      0.00%     42.48% # attempts to use FU when none available (Count)
system.cpu0.statFuBusy::SimdShaSigma3               0      0.00%     42.48% # attempts to use FU when none available (Count)
system.cpu0.statFuBusy::SimdPredAlu                 0      0.00%     42.48% # attempts to use FU when none available (Count)
system.cpu0.statFuBusy::MemRead                 13290     13.30%     55.77% # attempts to use FU when none available (Count)
system.cpu0.statFuBusy::MemWrite                11054     11.06%     66.83% # attempts to use FU when none available (Count)
system.cpu0.statFuBusy::FloatMemRead             7474      7.48%     74.31% # attempts to use FU when none available (Count)
system.cpu0.statFuBusy::FloatMemWrite           25680     25.69%    100.00% # attempts to use FU when none available (Count)
system.cpu0.statFuBusy::IprAccess                   0      0.00%    100.00% # attempts to use FU when none available (Count)
system.cpu0.statFuBusy::InstPrefetch                0      0.00%    100.00% # attempts to use FU when none available (Count)
system.cpu0.statIssuedInstType_0::No_OpClass        19210      0.22%      0.22% # Number of instructions issued per FU type, per thread (Count)
system.cpu0.statIssuedInstType_0::IntAlu      5745360     67.10%     67.32% # Number of instructions issued per FU type, per thread (Count)
system.cpu0.statIssuedInstType_0::IntMult           35      0.00%     67.32% # Number of instructions issued per FU type, per thread (Count)
system.cpu0.statIssuedInstType_0::IntDiv        38318      0.45%     67.77% # Number of instructions issued per FU type, per thread (Count)
system.cpu0.statIssuedInstType_0::FloatAdd         4369      0.05%     67.82% # Number of instructions issued per FU type, per thread (Count)
system.cpu0.statIssuedInstType_0::FloatCmp            0      0.00%     67.82% # Number of instructions issued per FU type, per thread (Count)
system.cpu0.statIssuedInstType_0::FloatCvt         1674      0.02%     67.84% # Number of instructions issued per FU type, per thread (Count)
system.cpu0.statIssuedInstType_0::FloatMult            0      0.00%     67.84% # Number of instructions issued per FU type, per thread (Count)
system.cpu0.statIssuedInstType_0::FloatMultAcc            0      0.00%     67.84% # Number of instructions issued per FU type, per thread (Count)
system.cpu0.statIssuedInstType_0::FloatDiv            0      0.00%     67.84% # Number of instructions issued per FU type, per thread (Count)
system.cpu0.statIssuedInstType_0::FloatMisc            0      0.00%     67.84% # Number of instructions issued per FU type, per thread (Count)
system.cpu0.statIssuedInstType_0::FloatSqrt            0      0.00%     67.84% # Number of instructions issued per FU type, per thread (Count)
system.cpu0.statIssuedInstType_0::SimdAdd         8375      0.10%     67.94% # Number of instructions issued per FU type, per thread (Count)
system.cpu0.statIssuedInstType_0::SimdAddAcc            0      0.00%     67.94% # Number of instructions issued per FU type, per thread (Count)
system.cpu0.statIssuedInstType_0::SimdAlu        16986      0.20%     68.14% # Number of instructions issued per FU type, per thread (Count)
system.cpu0.statIssuedInstType_0::SimdCmp            0      0.00%     68.14% # Number of instructions issued per FU type, per thread (Count)
system.cpu0.statIssuedInstType_0::SimdCvt        18677      0.22%     68.36% # Number of instructions issued per FU type, per thread (Count)
system.cpu0.statIssuedInstType_0::SimdMisc         8831      0.10%     68.46% # Number of instructions issued per FU type, per thread (Count)
system.cpu0.statIssuedInstType_0::SimdMult            0      0.00%     68.46% # Number of instructions issued per FU type, per thread (Count)
system.cpu0.statIssuedInstType_0::SimdMultAcc            0      0.00%     68.46% # Number of instructions issued per FU type, per thread (Count)
system.cpu0.statIssuedInstType_0::SimdShift         2555      0.03%     68.49% # Number of instructions issued per FU type, per thread (Count)
system.cpu0.statIssuedInstType_0::SimdShiftAcc            0      0.00%     68.49% # Number of instructions issued per FU type, per thread (Count)
system.cpu0.statIssuedInstType_0::SimdDiv            0      0.00%     68.49% # Number of instructions issued per FU type, per thread (Count)
system.cpu0.statIssuedInstType_0::SimdSqrt            0      0.00%     68.49% # Number of instructions issued per FU type, per thread (Count)
system.cpu0.statIssuedInstType_0::SimdFloatAdd            0      0.00%     68.49% # Number of instructions issued per FU type, per thread (Count)
system.cpu0.statIssuedInstType_0::SimdFloatAlu            0      0.00%     68.49% # Number of instructions issued per FU type, per thread (Count)
system.cpu0.statIssuedInstType_0::SimdFloatCmp            0      0.00%     68.49% # Number of instructions issued per FU type, per thread (Count)
system.cpu0.statIssuedInstType_0::SimdFloatCvt            0      0.00%     68.49% # Number of instructions issued per FU type, per thread (Count)
system.cpu0.statIssuedInstType_0::SimdFloatDiv            0      0.00%     68.49% # Number of instructions issued per FU type, per thread (Count)
system.cpu0.statIssuedInstType_0::SimdFloatMisc            0      0.00%     68.49% # Number of instructions issued per FU type, per thread (Count)
system.cpu0.statIssuedInstType_0::SimdFloatMult            0      0.00%     68.49% # Number of instructions issued per FU type, per thread (Count)
system.cpu0.statIssuedInstType_0::SimdFloatMultAcc            0      0.00%     68.49% # Number of instructions issued per FU type, per thread (Count)
system.cpu0.statIssuedInstType_0::SimdFloatSqrt            0      0.00%     68.49% # Number of instructions issued per FU type, per thread (Count)
system.cpu0.statIssuedInstType_0::SimdReduceAdd            0      0.00%     68.49% # Number of instructions issued per FU type, per thread (Count)
system.cpu0.statIssuedInstType_0::SimdReduceAlu            0      0.00%     68.49% # Number of instructions issued per FU type, per thread (Count)
system.cpu0.statIssuedInstType_0::SimdReduceCmp            0      0.00%     68.49% # Number of instructions issued per FU type, per thread (Count)
system.cpu0.statIssuedInstType_0::SimdFloatReduceAdd            0      0.00%     68.49% # Number of instructions issued per FU type, per thread (Count)
system.cpu0.statIssuedInstType_0::SimdFloatReduceCmp            0      0.00%     68.49% # Number of instructions issued per FU type, per thread (Count)
system.cpu0.statIssuedInstType_0::SimdAes            0      0.00%     68.49% # Number of instructions issued per FU type, per thread (Count)
system.cpu0.statIssuedInstType_0::SimdAesMix            0      0.00%     68.49% # Number of instructions issued per FU type, per thread (Count)
system.cpu0.statIssuedInstType_0::SimdSha1Hash            0      0.00%     68.49% # Number of instructions issued per FU type, per thread (Count)
system.cpu0.statIssuedInstType_0::SimdSha1Hash2            0      0.00%     68.49% # Number of instructions issued per FU type, per thread (Count)
system.cpu0.statIssuedInstType_0::SimdSha256Hash            0      0.00%     68.49% # Number of instructions issued per FU type, per thread (Count)
system.cpu0.statIssuedInstType_0::SimdSha256Hash2            0      0.00%     68.49% # Number of instructions issued per FU type, per thread (Count)
system.cpu0.statIssuedInstType_0::SimdShaSigma2            0      0.00%     68.49% # Number of instructions issued per FU type, per thread (Count)
system.cpu0.statIssuedInstType_0::SimdShaSigma3            0      0.00%     68.49% # Number of instructions issued per FU type, per thread (Count)
system.cpu0.statIssuedInstType_0::SimdPredAlu            0      0.00%     68.49% # Number of instructions issued per FU type, per thread (Count)
system.cpu0.statIssuedInstType_0::MemRead       937905     10.95%     79.44% # Number of instructions issued per FU type, per thread (Count)
system.cpu0.statIssuedInstType_0::MemWrite       914779     10.68%     90.13% # Number of instructions issued per FU type, per thread (Count)
system.cpu0.statIssuedInstType_0::FloatMemRead       433506      5.06%     95.19% # Number of instructions issued per FU type, per thread (Count)
system.cpu0.statIssuedInstType_0::FloatMemWrite       411942      4.81%    100.00% # Number of instructions issued per FU type, per thread (Count)
system.cpu0.statIssuedInstType_0::IprAccess            0      0.00%    100.00% # Number of instructions issued per FU type, per thread (Count)
system.cpu0.statIssuedInstType_0::InstPrefetch            0      0.00%    100.00% # Number of instructions issued per FU type, per thread (Count)
system.cpu0.statIssuedInstType_0::total       8562522                       # Number of instructions issued per FU type, per thread (Count)
system.cpu0.issueRate                        0.705174                       # Inst issue rate ((Count/Cycle))
system.cpu0.fuBusy                              99957                       # FU busy when requested (Count)
system.cpu0.fuBusyRate                       0.011674                       # FU busy rate (busy events/executed inst) ((Count/Count))
system.cpu0.intInstQueueReads                26351050                       # Number of integer instruction queue reads (Count)
system.cpu0.intInstQueueWrites                9170126                       # Number of integer instruction queue writes (Count)
system.cpu0.intInstQueueWakeupAccesses        7588347                       # Number of integer instruction queue wakeup accesses (Count)
system.cpu0.fpInstQueueReads                  1850031                       # Number of floating instruction queue reads (Count)
system.cpu0.fpInstQueueWrites                  980542                       # Number of floating instruction queue writes (Count)
system.cpu0.fpInstQueueWakeupAccesses          898196                       # Number of floating instruction queue wakeup accesses (Count)
system.cpu0.vecInstQueueReads                       0                       # Number of vector instruction queue reads (Count)
system.cpu0.vecInstQueueWrites                      0                       # Number of vector instruction queue writes (Count)
system.cpu0.vecInstQueueWakeupAccesses              0                       # Number of vector instruction queue wakeup accesses (Count)
system.cpu0.intAluAccesses                    7701628                       # Number of integer alu accesses (Count)
system.cpu0.fpAluAccesses                      941641                       # Number of floating point alu accesses (Count)
system.cpu0.vecAluAccesses                          0                       # Number of vector alu accesses (Count)
system.cpu0.numInsts                          8524085                       # Number of executed instructions (Count)
system.cpu0.numLoadInsts                      1359763                       # Number of load instructions executed (Count)
system.cpu0.numSquashedInsts                    38437                       # Number of squashed instructions skipped in execute (Count)
system.cpu0.numSwp                                  0                       # Number of swp insts executed (Count)
system.cpu0.numNop                                  0                       # Number of nop insts executed (Count)
system.cpu0.numRefs                           2683469                       # Number of memory reference insts executed (Count)
system.cpu0.numBranches                        451132                       # Number of branches executed (Count)
system.cpu0.numStoreInsts                     1323706                       # Number of stores executed (Count)
system.cpu0.numRate                          0.702008                       # Inst execution rate ((Count/Cycle))
system.cpu0.timesIdled                           2404                       # Number of times that the entire CPU went into an idle state and unscheduled itself (Count)
system.cpu0.idleCycles                        1169160                       # Total number of cycles that the CPU has spent unscheduled due to idling (Cycle)
system.cpu0.committedInsts                    5139143                       # Number of Instructions Simulated (Count)
system.cpu0.committedOps                      7822956                       # Number of Ops (including micro ops) Simulated (Count)
system.cpu0.cpi                              2.362734                       # CPI: Cycles Per Instruction ((Cycle/Count))
system.cpu0.totalCpi                         2.362734                       # CPI: Total CPI of All Threads ((Cycle/Count))
system.cpu0.ipc                              0.423239                       # IPC: Instructions Per Cycle ((Count/Cycle))
system.cpu0.totalIpc                         0.423239                       # IPC: Total IPC of All Threads ((Count/Cycle))
system.cpu0.intRegfileReads                  11804675                       # Number of integer regfile reads (Count)
system.cpu0.intRegfileWrites                  5918020                       # Number of integer regfile writes (Count)
system.cpu0.fpRegfileReads                     543988                       # Number of floating regfile reads (Count)
system.cpu0.fpRegfileWrites                    477289                       # Number of floating regfile writes (Count)
system.cpu0.ccRegfileReads                    3282931                       # number of cc regfile reads (Count)
system.cpu0.ccRegfileWrites                   3468047                       # number of cc regfile writes (Count)
system.cpu0.miscRegfileReads                  3829974                       # number of misc regfile reads (Count)
system.cpu0.miscRegfileWrites                     846                       # number of misc regfile writes (Count)
system.cpu0.MemDepUnit__0.insertedLoads       1395638                       # Number of loads inserted to the mem dependence unit. (Count)
system.cpu0.MemDepUnit__0.insertedStores      1348900                       # Number of stores inserted to the mem dependence unit. (Count)
system.cpu0.MemDepUnit__0.conflictingLoads       165884                       # Number of conflicting loads. (Count)
system.cpu0.MemDepUnit__0.conflictingStores        24131                       # Number of conflicting stores. (Count)
system.cpu0.MemDepUnit__1.insertedLoads             0                       # Number of loads inserted to the mem dependence unit. (Count)
system.cpu0.MemDepUnit__1.insertedStores            0                       # Number of stores inserted to the mem dependence unit. (Count)
system.cpu0.MemDepUnit__1.conflictingLoads            0                       # Number of conflicting loads. (Count)
system.cpu0.MemDepUnit__1.conflictingStores            0                       # Number of conflicting stores. (Count)
system.cpu0.MemDepUnit__2.insertedLoads             0                       # Number of loads inserted to the mem dependence unit. (Count)
system.cpu0.MemDepUnit__2.insertedStores            0                       # Number of stores inserted to the mem dependence unit. (Count)
system.cpu0.MemDepUnit__2.conflictingLoads            0                       # Number of conflicting loads. (Count)
system.cpu0.MemDepUnit__2.conflictingStores            0                       # Number of conflicting stores. (Count)
system.cpu0.MemDepUnit__3.insertedLoads             0                       # Number of loads inserted to the mem dependence unit. (Count)
system.cpu0.MemDepUnit__3.insertedStores            0                       # Number of stores inserted to the mem dependence unit. (Count)
system.cpu0.MemDepUnit__3.conflictingLoads            0                       # Number of conflicting loads. (Count)
system.cpu0.MemDepUnit__3.conflictingStores            0                       # Number of conflicting stores. (Count)
system.cpu0.branchPred.lookups                 571867                       # Number of BP lookups (Count)
system.cpu0.branchPred.condPredicted           508227                       # Number of conditional branches predicted (Count)
system.cpu0.branchPred.condIncorrect            19259                       # Number of conditional branches incorrect (Count)
system.cpu0.branchPred.BTBLookups              326715                       # Number of BTB lookups (Count)
system.cpu0.branchPred.BTBUpdates                8722                       # Number of BTB updates (Count)
system.cpu0.branchPred.BTBHits                 322512                       # Number of BTB hits (Count)
system.cpu0.branchPred.BTBHitRatio           0.987136                       # BTB Hit Ratio (Ratio)
system.cpu0.branchPred.RASUsed                  14501                       # Number of times the RAS was used to get a target. (Count)
system.cpu0.branchPred.RASIncorrect                 9                       # Number of incorrect RAS predictions. (Count)
system.cpu0.branchPred.indirectLookups           9911                       # Number of indirect predictor lookups. (Count)
system.cpu0.branchPred.indirectHits              5155                       # Number of indirect target hits. (Count)
system.cpu0.branchPred.indirectMisses            4756                       # Number of indirect misses. (Count)
system.cpu0.branchPred.indirectMispredicted         1238                       # Number of mispredicted indirect branches. (Count)
system.cpu0.commit.commitSquashedInsts        1153989                       # The number of squashed insts skipped by commit (Count)
system.cpu0.commit.commitNonSpecStalls            853                       # The number of times commit has been forced to stall to communicate backwards (Count)
system.cpu0.commit.branchMispredicts            20397                       # The number of times a branch was mispredicted (Count)
system.cpu0.commit.numCommittedDist::samples     10806845                       # Number of insts commited each cycle (Count)
system.cpu0.commit.numCommittedDist::mean     0.723889                       # Number of insts commited each cycle (Count)
system.cpu0.commit.numCommittedDist::stdev     1.777241                       # Number of insts commited each cycle (Count)
system.cpu0.commit.numCommittedDist::underflows            0      0.00%      0.00% # Number of insts commited each cycle (Count)
system.cpu0.commit.numCommittedDist::0        8289874     76.71%     76.71% # Number of insts commited each cycle (Count)
system.cpu0.commit.numCommittedDist::1         941966      8.72%     85.43% # Number of insts commited each cycle (Count)
system.cpu0.commit.numCommittedDist::2         509156      4.71%     90.14% # Number of insts commited each cycle (Count)
system.cpu0.commit.numCommittedDist::3         287421      2.66%     92.80% # Number of insts commited each cycle (Count)
system.cpu0.commit.numCommittedDist::4         140599      1.30%     94.10% # Number of insts commited each cycle (Count)
system.cpu0.commit.numCommittedDist::5         172396      1.60%     95.69% # Number of insts commited each cycle (Count)
system.cpu0.commit.numCommittedDist::6          48039      0.44%     96.14% # Number of insts commited each cycle (Count)
system.cpu0.commit.numCommittedDist::7          51347      0.48%     96.61% # Number of insts commited each cycle (Count)
system.cpu0.commit.numCommittedDist::8         366047      3.39%    100.00% # Number of insts commited each cycle (Count)
system.cpu0.commit.numCommittedDist::overflows            0      0.00%    100.00% # Number of insts commited each cycle (Count)
system.cpu0.commit.numCommittedDist::min_value            0                       # Number of insts commited each cycle (Count)
system.cpu0.commit.numCommittedDist::max_value            8                       # Number of insts commited each cycle (Count)
system.cpu0.commit.numCommittedDist::total     10806845                       # Number of insts commited each cycle (Count)
system.cpu0.commit.instsCommitted             5139143                       # Number of instructions committed (Count)
system.cpu0.commit.opsCommitted               7822956                       # Number of ops (including micro ops) committed (Count)
system.cpu0.commit.memRefs                    2533632                       # Number of memory references committed (Count)
system.cpu0.commit.loads                      1237903                       # Number of loads committed (Count)
system.cpu0.commit.amos                             0                       # Number of atomic instructions committed (Count)
system.cpu0.commit.membars                          2                       # Number of memory barriers committed (Count)
system.cpu0.commit.branches                    413079                       # Number of branches committed (Count)
system.cpu0.commit.vectorInstructions               0                       # Number of committed Vector instructions. (Count)
system.cpu0.commit.floating                    868842                       # Number of committed floating point instructions. (Count)
system.cpu0.commit.integer                    7762285                       # Number of committed integer instructions. (Count)
system.cpu0.commit.functionCalls                10695                       # Number of function calls committed. (Count)
system.cpu0.commit.committedInstType_0::No_OpClass        11879      0.15%      0.15% # Class of committed instruction (Count)
system.cpu0.commit.committedInstType_0::IntAlu      5196139     66.42%     66.57% # Class of committed instruction (Count)
system.cpu0.commit.committedInstType_0::IntMult           29      0.00%     66.57% # Class of committed instruction (Count)
system.cpu0.commit.committedInstType_0::IntDiv        35972      0.46%     67.03% # Class of committed instruction (Count)
system.cpu0.commit.committedInstType_0::FloatAdd         3214      0.04%     67.07% # Class of committed instruction (Count)
system.cpu0.commit.committedInstType_0::FloatCmp            0      0.00%     67.07% # Class of committed instruction (Count)
system.cpu0.commit.committedInstType_0::FloatCvt         1504      0.02%     67.09% # Class of committed instruction (Count)
system.cpu0.commit.committedInstType_0::FloatMult            0      0.00%     67.09% # Class of committed instruction (Count)
system.cpu0.commit.committedInstType_0::FloatMultAcc            0      0.00%     67.09% # Class of committed instruction (Count)
system.cpu0.commit.committedInstType_0::FloatDiv            0      0.00%     67.09% # Class of committed instruction (Count)
system.cpu0.commit.committedInstType_0::FloatMisc            0      0.00%     67.09% # Class of committed instruction (Count)
system.cpu0.commit.committedInstType_0::FloatSqrt            0      0.00%     67.09% # Class of committed instruction (Count)
system.cpu0.commit.committedInstType_0::SimdAdd         6746      0.09%     67.18% # Class of committed instruction (Count)
system.cpu0.commit.committedInstType_0::SimdAddAcc            0      0.00%     67.18% # Class of committed instruction (Count)
system.cpu0.commit.committedInstType_0::SimdAlu        12083      0.15%     67.33% # Class of committed instruction (Count)
system.cpu0.commit.committedInstType_0::SimdCmp            0      0.00%     67.33% # Class of committed instruction (Count)
system.cpu0.commit.committedInstType_0::SimdCvt        13188      0.17%     67.50% # Class of committed instruction (Count)
system.cpu0.commit.committedInstType_0::SimdMisc         7204      0.09%     67.60% # Class of committed instruction (Count)
system.cpu0.commit.committedInstType_0::SimdMult            0      0.00%     67.60% # Class of committed instruction (Count)
system.cpu0.commit.committedInstType_0::SimdMultAcc            0      0.00%     67.60% # Class of committed instruction (Count)
system.cpu0.commit.committedInstType_0::SimdShift         1366      0.02%     67.61% # Class of committed instruction (Count)
system.cpu0.commit.committedInstType_0::SimdShiftAcc            0      0.00%     67.61% # Class of committed instruction (Count)
system.cpu0.commit.committedInstType_0::SimdDiv            0      0.00%     67.61% # Class of committed instruction (Count)
system.cpu0.commit.committedInstType_0::SimdSqrt            0      0.00%     67.61% # Class of committed instruction (Count)
system.cpu0.commit.committedInstType_0::SimdFloatAdd            0      0.00%     67.61% # Class of committed instruction (Count)
system.cpu0.commit.committedInstType_0::SimdFloatAlu            0      0.00%     67.61% # Class of committed instruction (Count)
system.cpu0.commit.committedInstType_0::SimdFloatCmp            0      0.00%     67.61% # Class of committed instruction (Count)
system.cpu0.commit.committedInstType_0::SimdFloatCvt            0      0.00%     67.61% # Class of committed instruction (Count)
system.cpu0.commit.committedInstType_0::SimdFloatDiv            0      0.00%     67.61% # Class of committed instruction (Count)
system.cpu0.commit.committedInstType_0::SimdFloatMisc            0      0.00%     67.61% # Class of committed instruction (Count)
system.cpu0.commit.committedInstType_0::SimdFloatMult            0      0.00%     67.61% # Class of committed instruction (Count)
system.cpu0.commit.committedInstType_0::SimdFloatMultAcc            0      0.00%     67.61% # Class of committed instruction (Count)
system.cpu0.commit.committedInstType_0::SimdFloatSqrt            0      0.00%     67.61% # Class of committed instruction (Count)
system.cpu0.commit.committedInstType_0::SimdReduceAdd            0      0.00%     67.61% # Class of committed instruction (Count)
system.cpu0.commit.committedInstType_0::SimdReduceAlu            0      0.00%     67.61% # Class of committed instruction (Count)
system.cpu0.commit.committedInstType_0::SimdReduceCmp            0      0.00%     67.61% # Class of committed instruction (Count)
system.cpu0.commit.committedInstType_0::SimdFloatReduceAdd            0      0.00%     67.61% # Class of committed instruction (Count)
system.cpu0.commit.committedInstType_0::SimdFloatReduceCmp            0      0.00%     67.61% # Class of committed instruction (Count)
system.cpu0.commit.committedInstType_0::SimdAes            0      0.00%     67.61% # Class of committed instruction (Count)
system.cpu0.commit.committedInstType_0::SimdAesMix            0      0.00%     67.61% # Class of committed instruction (Count)
system.cpu0.commit.committedInstType_0::SimdSha1Hash            0      0.00%     67.61% # Class of committed instruction (Count)
system.cpu0.commit.committedInstType_0::SimdSha1Hash2            0      0.00%     67.61% # Class of committed instruction (Count)
system.cpu0.commit.committedInstType_0::SimdSha256Hash            0      0.00%     67.61% # Class of committed instruction (Count)
system.cpu0.commit.committedInstType_0::SimdSha256Hash2            0      0.00%     67.61% # Class of committed instruction (Count)
system.cpu0.commit.committedInstType_0::SimdShaSigma2            0      0.00%     67.61% # Class of committed instruction (Count)
system.cpu0.commit.committedInstType_0::SimdShaSigma3            0      0.00%     67.61% # Class of committed instruction (Count)
system.cpu0.commit.committedInstType_0::SimdPredAlu            0      0.00%     67.61% # Class of committed instruction (Count)
system.cpu0.commit.committedInstType_0::MemRead       822974     10.52%     78.13% # Class of committed instruction (Count)
system.cpu0.commit.committedInstType_0::MemWrite       888033     11.35%     89.48% # Class of committed instruction (Count)
system.cpu0.commit.committedInstType_0::FloatMemRead       414929      5.30%     94.79% # Class of committed instruction (Count)
system.cpu0.commit.committedInstType_0::FloatMemWrite       407696      5.21%    100.00% # Class of committed instruction (Count)
system.cpu0.commit.committedInstType_0::IprAccess            0      0.00%    100.00% # Class of committed instruction (Count)
system.cpu0.commit.committedInstType_0::InstPrefetch            0      0.00%    100.00% # Class of committed instruction (Count)
system.cpu0.commit.committedInstType_0::total      7822956                       # Class of committed instruction (Count)
system.cpu0.commit.commitEligibleSamples       366047                       # number cycles where commit BW limit reached (Cycle)
system.cpu0.decode.idleCycles                  588930                       # Number of cycles decode is idle (Cycle)
system.cpu0.decode.blockedCycles              9083047                       # Number of cycles decode is blocked (Cycle)
system.cpu0.decode.runCycles                   791703                       # Number of cycles decode is running (Cycle)
system.cpu0.decode.unblockCycles               486401                       # Number of cycles decode is unblocking (Cycle)
system.cpu0.decode.squashCycles                 23186                       # Number of cycles decode is squashing (Cycle)
system.cpu0.decode.branchResolved              307570                       # Number of times decode resolved a branch (Count)
system.cpu0.decode.branchMispred                 1256                       # Number of times decode detected a branch misprediction (Count)
system.cpu0.decode.decodedInsts               9233711                       # Number of instructions handled by decode (Count)
system.cpu0.decode.squashedInsts                 5947                       # Number of squashed instructions handled by decode (Count)
system.cpu0.fetch.icacheStallCycles            812887                       # Number of cycles fetch is stalled on an Icache miss (Cycle)
system.cpu0.fetch.insts                       6119900                       # Number of instructions fetch has processed (Count)
system.cpu0.fetch.branches                     571867                       # Number of branches that fetch encountered (Count)
system.cpu0.fetch.predictedBranches            342168                       # Number of branches that fetch has predicted taken (Count)
system.cpu0.fetch.cycles                      9904208                       # Number of cycles fetch has run and was not squashing or blocked (Cycle)
system.cpu0.fetch.squashCycles                  48828                       # Number of cycles fetch has spent squashing (Cycle)
system.cpu0.fetch.miscStallCycles               12310                       # Number of cycles fetch has spent waiting on interrupts, or bad addresses, or out of MSHRs (Cycle)
system.cpu0.fetch.pendingTrapStallCycles        15349                       # Number of stall cycles due to pending traps (Cycle)
system.cpu0.fetch.icacheWaitRetryStallCycles       204099                       # Number of stall cycles due to full MSHR (Cycle)
system.cpu0.fetch.cacheLines                   613450                       # Number of cache lines fetched (Count)
system.cpu0.fetch.icacheSquashes                 4824                       # Number of outstanding Icache misses that were squashed (Count)
system.cpu0.fetch.nisnDist::samples          10973267                       # Number of instructions fetched each cycle (Total) (Count)
system.cpu0.fetch.nisnDist::mean             0.872339                       # Number of instructions fetched each cycle (Total) (Count)
system.cpu0.fetch.nisnDist::stdev            2.284732                       # Number of instructions fetched each cycle (Total) (Count)
system.cpu0.fetch.nisnDist::underflows              0      0.00%      0.00% # Number of instructions fetched each cycle (Total) (Count)
system.cpu0.fetch.nisnDist::0                 9330148     85.03%     85.03% # Number of instructions fetched each cycle (Total) (Count)
system.cpu0.fetch.nisnDist::1                   60834      0.55%     85.58% # Number of instructions fetched each cycle (Total) (Count)
system.cpu0.fetch.nisnDist::2                  169689      1.55%     87.13% # Number of instructions fetched each cycle (Total) (Count)
system.cpu0.fetch.nisnDist::3                  170253      1.55%     88.68% # Number of instructions fetched each cycle (Total) (Count)
system.cpu0.fetch.nisnDist::4                  174719      1.59%     90.27% # Number of instructions fetched each cycle (Total) (Count)
system.cpu0.fetch.nisnDist::5                  127470      1.16%     91.43% # Number of instructions fetched each cycle (Total) (Count)
system.cpu0.fetch.nisnDist::6                   73601      0.67%     92.10% # Number of instructions fetched each cycle (Total) (Count)
system.cpu0.fetch.nisnDist::7                   48821      0.44%     92.55% # Number of instructions fetched each cycle (Total) (Count)
system.cpu0.fetch.nisnDist::8                  817732      7.45%    100.00% # Number of instructions fetched each cycle (Total) (Count)
system.cpu0.fetch.nisnDist::overflows               0      0.00%    100.00% # Number of instructions fetched each cycle (Total) (Count)
system.cpu0.fetch.nisnDist::min_value               0                       # Number of instructions fetched each cycle (Total) (Count)
system.cpu0.fetch.nisnDist::max_value               8                       # Number of instructions fetched each cycle (Total) (Count)
system.cpu0.fetch.nisnDist::total            10973267                       # Number of instructions fetched each cycle (Total) (Count)
system.cpu0.fetch.branchRate                 0.047097                       # Number of branch fetches per cycle (Ratio)
system.cpu0.fetch.rate                       0.504010                       # Number of inst fetches per cycle ((Count/Cycle))
system.cpu0.iew.idleCycles                          0                       # Number of cycles IEW is idle (Cycle)
system.cpu0.iew.squashCycles                    23186                       # Number of cycles IEW is squashing (Cycle)
system.cpu0.iew.blockCycles                   4978507                       # Number of cycles IEW is blocking (Cycle)
system.cpu0.iew.unblockCycles                  154271                       # Number of cycles IEW is unblocking (Cycle)
system.cpu0.iew.dispatchedInsts               8985703                       # Number of instructions dispatched to IQ (Count)
system.cpu0.iew.dispSquashedInsts                1090                       # Number of squashed instructions skipped by dispatch (Count)
system.cpu0.iew.dispLoadInsts                 1395638                       # Number of dispatched load instructions (Count)
system.cpu0.iew.dispStoreInsts                1348900                       # Number of dispatched store instructions (Count)
system.cpu0.iew.dispNonSpecInsts                  899                       # Number of dispatched non-speculative instructions (Count)
system.cpu0.iew.iqFullEvents                     7372                       # Number of times the IQ has become full, causing a stall (Count)
system.cpu0.iew.lsqFullEvents                  141690                       # Number of times the LSQ has become full, causing a stall (Count)
system.cpu0.iew.memOrderViolationEvents          2225                       # Number of memory order violations (Count)
system.cpu0.iew.predictedTakenIncorrect          9923                       # Number of branches that were predicted taken incorrectly (Count)
system.cpu0.iew.predictedNotTakenIncorrect        12665                       # Number of branches that were predicted not taken incorrectly (Count)
system.cpu0.iew.branchMispredicts               22588                       # Number of branch mispredicts detected at execute (Count)
system.cpu0.iew.instsToCommit                 8500480                       # Cumulative count of insts sent to commit (Count)
system.cpu0.iew.writebackCount                8486543                       # Cumulative count of insts written-back (Count)
system.cpu0.iew.producerInst                  5496261                       # Number of instructions producing a value (Count)
system.cpu0.iew.consumerInst                 10389357                       # Number of instructions consuming a value (Count)
system.cpu0.iew.wbRate                       0.698917                       # Insts written-back per cycle ((Count/Cycle))
system.cpu0.iew.wbFanout                     0.529028                       # Average fanout of values written-back ((Count/Count))
system.cpu0.interrupts.clk_domain.clock          8000                       # Clock period in ticks (Tick)
system.cpu0.lsq0.forwLoads                     208723                       # Number of loads that had data forwarded from stores (Count)
system.cpu0.lsq0.squashedLoads                 157735                       # Number of loads squashed (Count)
system.cpu0.lsq0.ignoredResponses                  94                       # Number of memory responses ignored because the instruction is squashed (Count)
system.cpu0.lsq0.memOrderViolation               2225                       # Number of memory ordering violations (Count)
system.cpu0.lsq0.squashedStores                 53171                       # Number of stores squashed (Count)
system.cpu0.lsq0.rescheduledLoads                3103                       # Number of loads that were rescheduled (Count)
system.cpu0.lsq0.blockedByCache                  2102                       # Number of times an access to memory failed due to the cache being blocked (Count)
system.cpu0.lsq0.loadToUse::samples           1237825                       # Distribution of cycle latency between the first time a load is issued and its completion (Unspecified)
system.cpu0.lsq0.loadToUse::mean            27.748771                       # Distribution of cycle latency between the first time a load is issued and its completion (Unspecified)
system.cpu0.lsq0.loadToUse::stdev          138.907787                       # Distribution of cycle latency between the first time a load is issued and its completion (Unspecified)
system.cpu0.lsq0.loadToUse::0-9               1190163     96.15%     96.15% # Distribution of cycle latency between the first time a load is issued and its completion (Unspecified)
system.cpu0.lsq0.loadToUse::10-19                  64      0.01%     96.15% # Distribution of cycle latency between the first time a load is issued and its completion (Unspecified)
system.cpu0.lsq0.loadToUse::20-29                  92      0.01%     96.16% # Distribution of cycle latency between the first time a load is issued and its completion (Unspecified)
system.cpu0.lsq0.loadToUse::30-39                 118      0.01%     96.17% # Distribution of cycle latency between the first time a load is issued and its completion (Unspecified)
system.cpu0.lsq0.loadToUse::40-49                2130      0.17%     96.34% # Distribution of cycle latency between the first time a load is issued and its completion (Unspecified)
system.cpu0.lsq0.loadToUse::50-59                 167      0.01%     96.36% # Distribution of cycle latency between the first time a load is issued and its completion (Unspecified)
system.cpu0.lsq0.loadToUse::60-69                 126      0.01%     96.37% # Distribution of cycle latency between the first time a load is issued and its completion (Unspecified)
system.cpu0.lsq0.loadToUse::70-79                  61      0.00%     96.37% # Distribution of cycle latency between the first time a load is issued and its completion (Unspecified)
system.cpu0.lsq0.loadToUse::80-89                  97      0.01%     96.38% # Distribution of cycle latency between the first time a load is issued and its completion (Unspecified)
system.cpu0.lsq0.loadToUse::90-99                  67      0.01%     96.39% # Distribution of cycle latency between the first time a load is issued and its completion (Unspecified)
system.cpu0.lsq0.loadToUse::100-109                49      0.00%     96.39% # Distribution of cycle latency between the first time a load is issued and its completion (Unspecified)
system.cpu0.lsq0.loadToUse::110-119                62      0.01%     96.39% # Distribution of cycle latency between the first time a load is issued and its completion (Unspecified)
system.cpu0.lsq0.loadToUse::120-129                53      0.00%     96.40% # Distribution of cycle latency between the first time a load is issued and its completion (Unspecified)
system.cpu0.lsq0.loadToUse::130-139                38      0.00%     96.40% # Distribution of cycle latency between the first time a load is issued and its completion (Unspecified)
system.cpu0.lsq0.loadToUse::140-149                56      0.00%     96.41% # Distribution of cycle latency between the first time a load is issued and its completion (Unspecified)
system.cpu0.lsq0.loadToUse::150-159                58      0.00%     96.41% # Distribution of cycle latency between the first time a load is issued and its completion (Unspecified)
system.cpu0.lsq0.loadToUse::160-169                58      0.00%     96.42% # Distribution of cycle latency between the first time a load is issued and its completion (Unspecified)
system.cpu0.lsq0.loadToUse::170-179               141      0.01%     96.43% # Distribution of cycle latency between the first time a load is issued and its completion (Unspecified)
system.cpu0.lsq0.loadToUse::180-189               606      0.05%     96.48% # Distribution of cycle latency between the first time a load is issued and its completion (Unspecified)
system.cpu0.lsq0.loadToUse::190-199                40      0.00%     96.48% # Distribution of cycle latency between the first time a load is issued and its completion (Unspecified)
system.cpu0.lsq0.loadToUse::200-209                57      0.00%     96.48% # Distribution of cycle latency between the first time a load is issued and its completion (Unspecified)
system.cpu0.lsq0.loadToUse::210-219                75      0.01%     96.49% # Distribution of cycle latency between the first time a load is issued and its completion (Unspecified)
system.cpu0.lsq0.loadToUse::220-229               120      0.01%     96.50% # Distribution of cycle latency between the first time a load is issued and its completion (Unspecified)
system.cpu0.lsq0.loadToUse::230-239               186      0.02%     96.51% # Distribution of cycle latency between the first time a load is issued and its completion (Unspecified)
system.cpu0.lsq0.loadToUse::240-249              1099      0.09%     96.60% # Distribution of cycle latency between the first time a load is issued and its completion (Unspecified)
system.cpu0.lsq0.loadToUse::250-259                44      0.00%     96.61% # Distribution of cycle latency between the first time a load is issued and its completion (Unspecified)
system.cpu0.lsq0.loadToUse::260-269                41      0.00%     96.61% # Distribution of cycle latency between the first time a load is issued and its completion (Unspecified)
system.cpu0.lsq0.loadToUse::270-279                67      0.01%     96.62% # Distribution of cycle latency between the first time a load is issued and its completion (Unspecified)
system.cpu0.lsq0.loadToUse::280-289               153      0.01%     96.63% # Distribution of cycle latency between the first time a load is issued and its completion (Unspecified)
system.cpu0.lsq0.loadToUse::290-299               271      0.02%     96.65% # Distribution of cycle latency between the first time a load is issued and its completion (Unspecified)
system.cpu0.lsq0.loadToUse::overflows           41466      3.35%    100.00% # Distribution of cycle latency between the first time a load is issued and its completion (Unspecified)
system.cpu0.lsq0.loadToUse::min_value               2                       # Distribution of cycle latency between the first time a load is issued and its completion (Unspecified)
system.cpu0.lsq0.loadToUse::max_value            2386                       # Distribution of cycle latency between the first time a load is issued and its completion (Unspecified)
system.cpu0.lsq0.loadToUse::total             1237825                       # Distribution of cycle latency between the first time a load is issued and its completion (Unspecified)
system.cpu0.mmu.dtb.rdAccesses                1354127                       # TLB accesses on read requests (Count)
system.cpu0.mmu.dtb.wrAccesses                1323908                       # TLB accesses on write requests (Count)
system.cpu0.mmu.dtb.rdMisses                     3151                       # TLB misses on read requests (Count)
system.cpu0.mmu.dtb.wrMisses                      415                       # TLB misses on write requests (Count)
system.cpu0.mmu.dtb.walker.power_state.pwrStateResidencyTicks::UNDEFINED   6117571000                       # Cumulative time (in ticks) in various power states (Tick)
system.cpu0.mmu.itb.rdAccesses                      0                       # TLB accesses on read requests (Count)
system.cpu0.mmu.itb.wrAccesses                 615902                       # TLB accesses on write requests (Count)
system.cpu0.mmu.itb.rdMisses                        0                       # TLB misses on read requests (Count)
system.cpu0.mmu.itb.wrMisses                     3004                       # TLB misses on write requests (Count)
system.cpu0.mmu.itb.walker.power_state.pwrStateResidencyTicks::UNDEFINED   6117571000                       # Cumulative time (in ticks) in various power states (Tick)
system.cpu0.power_state.pwrStateResidencyTicks::ON   6117571000                       # Cumulative time (in ticks) in various power states (Tick)
system.cpu0.rename.squashCycles                 23186                       # Number of cycles rename is squashing (Cycle)
system.cpu0.rename.idleCycles                  793629                       # Number of cycles rename is idle (Cycle)
system.cpu0.rename.blockCycles                6578098                       # Number of cycles rename is blocking (Cycle)
system.cpu0.rename.serializeStallCycles         22095                       # count of cycles rename stalled for serializing inst (Cycle)
system.cpu0.rename.runCycles                  1064108                       # Number of cycles rename is running (Cycle)
system.cpu0.rename.unblockCycles              2492151                       # Number of cycles rename is unblocking (Cycle)
system.cpu0.rename.renamedInsts               9134952                       # Number of instructions processed by rename (Count)
system.cpu0.rename.ROBFullEvents               102574                       # Number of times rename has blocked due to ROB full (Count)
system.cpu0.rename.IQFullEvents                246653                       # Number of times rename has blocked due to IQ full (Count)
system.cpu0.rename.LQFullEvents                145985                       # Number of times rename has blocked due to LQ full (Count)
system.cpu0.rename.SQFullEvents               1987483                       # Number of times rename has blocked due to SQ full (Count)
system.cpu0.rename.fullRegistersEvents           3037                       # Number of times there has been no free registers (Count)
system.cpu0.rename.renamedOperands           17345215                       # Number of destination operands rename has renamed (Count)
system.cpu0.rename.lookups                   33176720                       # Number of register rename lookups that rename has made (Count)
system.cpu0.rename.intLookups                12919562                       # Number of integer rename lookups (Count)
system.cpu0.rename.fpLookups                   589346                       # Number of floating rename lookups (Count)
system.cpu0.rename.committedMaps             14759308                       # Number of HB maps that are committed (Count)
system.cpu0.rename.undoneMaps                 2585907                       # Number of HB maps that are undone due to squashing (Count)
system.cpu0.rename.serializing                    874                       # count of serializing insts renamed (Count)
system.cpu0.rename.tempSerializing                859                       # count of temporary serializing insts renamed (Count)
system.cpu0.rename.skidInsts                  2766079                       # count of insts added to the skid buffer (Count)
system.cpu0.rob.reads                        19410021                       # The number of ROB reads (Count)
system.cpu0.rob.writes                       18120562                       # The number of ROB writes (Count)
system.cpu0.thread_0.numInsts                 5139143                       # Number of Instructions committed (Count)
system.cpu0.thread_0.numOps                   7822956                       # Number of Ops committed (Count)
system.cpu0.thread_0.numMemRefs                     0                       # Number of Memory References (Count)
system.cpu0.workload.numSyscalls                   63                       # Number of system calls (Count)
system.cpu1.numCycles                        11634253                       # Number of cpu cycles simulated (Cycle)
system.cpu1.numWorkItemsStarted                     0                       # Number of work items this cpu started (Count)
system.cpu1.numWorkItemsCompleted                   0                       # Number of work items this cpu completed (Count)
system.cpu1.instsAdded                        8983647                       # Number of instructions added to the IQ (excludes non-spec) (Count)
system.cpu1.nonSpecInstsAdded                    1082                       # Number of non-speculative instructions added to the IQ (Count)
system.cpu1.instsIssued                       8561141                       # Number of instructions issued (Count)
system.cpu1.squashedInstsIssued                  2923                       # Number of squashed instructions issued (Count)
system.cpu1.squashedInstsExamined             1161773                       # Number of squashed instructions iterated over during squash; mainly for profiling (Count)
system.cpu1.squashedOperandsExamined          2500043                       # Number of squashed operands that are examined and possibly removed from graph (Count)
system.cpu1.squashedNonSpecRemoved                229                       # Number of squashed non-spec instructions that were removed (Count)
system.cpu1.numIssuedDist::samples           10565650                       # Number of insts issued each cycle (Count)
system.cpu1.numIssuedDist::mean              0.810281                       # Number of insts issued each cycle (Count)
system.cpu1.numIssuedDist::stdev             1.608962                       # Number of insts issued each cycle (Count)
system.cpu1.numIssuedDist::underflows               0      0.00%      0.00% # Number of insts issued each cycle (Count)
system.cpu1.numIssuedDist::0                  7654181     72.44%     72.44% # Number of insts issued each cycle (Count)
system.cpu1.numIssuedDist::1                   680627      6.44%     78.89% # Number of insts issued each cycle (Count)
system.cpu1.numIssuedDist::2                   825134      7.81%     86.70% # Number of insts issued each cycle (Count)
system.cpu1.numIssuedDist::3                   457933      4.33%     91.03% # Number of insts issued each cycle (Count)
system.cpu1.numIssuedDist::4                   364544      3.45%     94.48% # Number of insts issued each cycle (Count)
system.cpu1.numIssuedDist::5                   291412      2.76%     97.24% # Number of insts issued each cycle (Count)
system.cpu1.numIssuedDist::6                   145985      1.38%     98.62% # Number of insts issued each cycle (Count)
system.cpu1.numIssuedDist::7                   101371      0.96%     99.58% # Number of insts issued each cycle (Count)
system.cpu1.numIssuedDist::8                    44463      0.42%    100.00% # Number of insts issued each cycle (Count)
system.cpu1.numIssuedDist::overflows                0      0.00%    100.00% # Number of insts issued each cycle (Count)
system.cpu1.numIssuedDist::min_value                0                       # Number of insts issued each cycle (Count)
system.cpu1.numIssuedDist::max_value                8                       # Number of insts issued each cycle (Count)
system.cpu1.numIssuedDist::total             10565650                       # Number of insts issued each cycle (Count)
system.cpu1.statFuBusy::No_OpClass                  0      0.00%      0.00% # attempts to use FU when none available (Count)
system.cpu1.statFuBusy::IntAlu                  42114     42.09%     42.09% # attempts to use FU when none available (Count)
system.cpu1.statFuBusy::IntMult                     0      0.00%     42.09% # attempts to use FU when none available (Count)
system.cpu1.statFuBusy::IntDiv                      0      0.00%     42.09% # attempts to use FU when none available (Count)
system.cpu1.statFuBusy::FloatAdd                    0      0.00%     42.09% # attempts to use FU when none available (Count)
system.cpu1.statFuBusy::FloatCmp                    0      0.00%     42.09% # attempts to use FU when none available (Count)
system.cpu1.statFuBusy::FloatCvt                    0      0.00%     42.09% # attempts to use FU when none available (Count)
system.cpu1.statFuBusy::FloatMult                   0      0.00%     42.09% # attempts to use FU when none available (Count)
system.cpu1.statFuBusy::FloatMultAcc                0      0.00%     42.09% # attempts to use FU when none available (Count)
system.cpu1.statFuBusy::FloatDiv                    0      0.00%     42.09% # attempts to use FU when none available (Count)
system.cpu1.statFuBusy::FloatMisc                   0      0.00%     42.09% # attempts to use FU when none available (Count)
system.cpu1.statFuBusy::FloatSqrt                   0      0.00%     42.09% # attempts to use FU when none available (Count)
system.cpu1.statFuBusy::SimdAdd                     0      0.00%     42.09% # attempts to use FU when none available (Count)
system.cpu1.statFuBusy::SimdAddAcc                  0      0.00%     42.09% # attempts to use FU when none available (Count)
system.cpu1.statFuBusy::SimdAlu                   122      0.12%     42.21% # attempts to use FU when none available (Count)
system.cpu1.statFuBusy::SimdCmp                     0      0.00%     42.21% # attempts to use FU when none available (Count)
system.cpu1.statFuBusy::SimdCvt                   139      0.14%     42.35% # attempts to use FU when none available (Count)
system.cpu1.statFuBusy::SimdMisc                    0      0.00%     42.35% # attempts to use FU when none available (Count)
system.cpu1.statFuBusy::SimdMult                    0      0.00%     42.35% # attempts to use FU when none available (Count)
system.cpu1.statFuBusy::SimdMultAcc                 0      0.00%     42.35% # attempts to use FU when none available (Count)
system.cpu1.statFuBusy::SimdShift                 146      0.15%     42.50% # attempts to use FU when none available (Count)
system.cpu1.statFuBusy::SimdShiftAcc                0      0.00%     42.50% # attempts to use FU when none available (Count)
system.cpu1.statFuBusy::SimdDiv                     0      0.00%     42.50% # attempts to use FU when none available (Count)
system.cpu1.statFuBusy::SimdSqrt                    0      0.00%     42.50% # attempts to use FU when none available (Count)
system.cpu1.statFuBusy::SimdFloatAdd                0      0.00%     42.50% # attempts to use FU when none available (Count)
system.cpu1.statFuBusy::SimdFloatAlu                0      0.00%     42.50% # attempts to use FU when none available (Count)
system.cpu1.statFuBusy::SimdFloatCmp                0      0.00%     42.50% # attempts to use FU when none available (Count)
system.cpu1.statFuBusy::SimdFloatCvt                0      0.00%     42.50% # attempts to use FU when none available (Count)
system.cpu1.statFuBusy::SimdFloatDiv                0      0.00%     42.50% # attempts to use FU when none available (Count)
system.cpu1.statFuBusy::SimdFloatMisc               0      0.00%     42.50% # attempts to use FU when none available (Count)
system.cpu1.statFuBusy::SimdFloatMult               0      0.00%     42.50% # attempts to use FU when none available (Count)
system.cpu1.statFuBusy::SimdFloatMultAcc            0      0.00%     42.50% # attempts to use FU when none available (Count)
system.cpu1.statFuBusy::SimdFloatSqrt               0      0.00%     42.50% # attempts to use FU when none available (Count)
system.cpu1.statFuBusy::SimdReduceAdd               0      0.00%     42.50% # attempts to use FU when none available (Count)
system.cpu1.statFuBusy::SimdReduceAlu               0      0.00%     42.50% # attempts to use FU when none available (Count)
system.cpu1.statFuBusy::SimdReduceCmp               0      0.00%     42.50% # attempts to use FU when none available (Count)
system.cpu1.statFuBusy::SimdFloatReduceAdd            0      0.00%     42.50% # attempts to use FU when none available (Count)
system.cpu1.statFuBusy::SimdFloatReduceCmp            0      0.00%     42.50% # attempts to use FU when none available (Count)
system.cpu1.statFuBusy::SimdAes                     0      0.00%     42.50% # attempts to use FU when none available (Count)
system.cpu1.statFuBusy::SimdAesMix                  0      0.00%     42.50% # attempts to use FU when none available (Count)
system.cpu1.statFuBusy::SimdSha1Hash                0      0.00%     42.50% # attempts to use FU when none available (Count)
system.cpu1.statFuBusy::SimdSha1Hash2               0      0.00%     42.50% # attempts to use FU when none available (Count)
system.cpu1.statFuBusy::SimdSha256Hash              0      0.00%     42.50% # attempts to use FU when none available (Count)
system.cpu1.statFuBusy::SimdSha256Hash2             0      0.00%     42.50% # attempts to use FU when none available (Count)
system.cpu1.statFuBusy::SimdShaSigma2               0      0.00%     42.50% # attempts to use FU when none available (Count)
system.cpu1.statFuBusy::SimdShaSigma3               0      0.00%     42.50% # attempts to use FU when none available (Count)
system.cpu1.statFuBusy::SimdPredAlu                 0      0.00%     42.50% # attempts to use FU when none available (Count)
system.cpu1.statFuBusy::MemRead                 13305     13.30%     55.80% # attempts to use FU when none available (Count)
system.cpu1.statFuBusy::MemWrite                11073     11.07%     66.86% # attempts to use FU when none available (Count)
system.cpu1.statFuBusy::FloatMemRead             7476      7.47%     74.33% # attempts to use FU when none available (Count)
system.cpu1.statFuBusy::FloatMemWrite           25679     25.67%    100.00% # attempts to use FU when none available (Count)
system.cpu1.statFuBusy::IprAccess                   0      0.00%    100.00% # attempts to use FU when none available (Count)
system.cpu1.statFuBusy::InstPrefetch                0      0.00%    100.00% # attempts to use FU when none available (Count)
system.cpu1.statIssuedInstType_0::No_OpClass        19040      0.22%      0.22% # Number of instructions issued per FU type, per thread (Count)
system.cpu1.statIssuedInstType_0::IntAlu      5744501     67.10%     67.32% # Number of instructions issued per FU type, per thread (Count)
system.cpu1.statIssuedInstType_0::IntMult           38      0.00%     67.32% # Number of instructions issued per FU type, per thread (Count)
system.cpu1.statIssuedInstType_0::IntDiv        38320      0.45%     67.77% # Number of instructions issued per FU type, per thread (Count)
system.cpu1.statIssuedInstType_0::FloatAdd         4370      0.05%     67.82% # Number of instructions issued per FU type, per thread (Count)
system.cpu1.statIssuedInstType_0::FloatCmp            0      0.00%     67.82% # Number of instructions issued per FU type, per thread (Count)
system.cpu1.statIssuedInstType_0::FloatCvt         1662      0.02%     67.84% # Number of instructions issued per FU type, per thread (Count)
system.cpu1.statIssuedInstType_0::FloatMult            0      0.00%     67.84% # Number of instructions issued per FU type, per thread (Count)
system.cpu1.statIssuedInstType_0::FloatMultAcc            0      0.00%     67.84% # Number of instructions issued per FU type, per thread (Count)
system.cpu1.statIssuedInstType_0::FloatDiv            0      0.00%     67.84% # Number of instructions issued per FU type, per thread (Count)
system.cpu1.statIssuedInstType_0::FloatMisc            0      0.00%     67.84% # Number of instructions issued per FU type, per thread (Count)
system.cpu1.statIssuedInstType_0::FloatSqrt            0      0.00%     67.84% # Number of instructions issued per FU type, per thread (Count)
system.cpu1.statIssuedInstType_0::SimdAdd         8336      0.10%     67.94% # Number of instructions issued per FU type, per thread (Count)
system.cpu1.statIssuedInstType_0::SimdAddAcc            0      0.00%     67.94% # Number of instructions issued per FU type, per thread (Count)
system.cpu1.statIssuedInstType_0::SimdAlu        16975      0.20%     68.14% # Number of instructions issued per FU type, per thread (Count)
system.cpu1.statIssuedInstType_0::SimdCmp            0      0.00%     68.14% # Number of instructions issued per FU type, per thread (Count)
system.cpu1.statIssuedInstType_0::SimdCvt        18601      0.22%     68.35% # Number of instructions issued per FU type, per thread (Count)
system.cpu1.statIssuedInstType_0::SimdMisc         8795      0.10%     68.46% # Number of instructions issued per FU type, per thread (Count)
system.cpu1.statIssuedInstType_0::SimdMult            0      0.00%     68.46% # Number of instructions issued per FU type, per thread (Count)
system.cpu1.statIssuedInstType_0::SimdMultAcc            0      0.00%     68.46% # Number of instructions issued per FU type, per thread (Count)
system.cpu1.statIssuedInstType_0::SimdShift         2578      0.03%     68.49% # Number of instructions issued per FU type, per thread (Count)
system.cpu1.statIssuedInstType_0::SimdShiftAcc            0      0.00%     68.49% # Number of instructions issued per FU type, per thread (Count)
system.cpu1.statIssuedInstType_0::SimdDiv            0      0.00%     68.49% # Number of instructions issued per FU type, per thread (Count)
system.cpu1.statIssuedInstType_0::SimdSqrt            0      0.00%     68.49% # Number of instructions issued per FU type, per thread (Count)
system.cpu1.statIssuedInstType_0::SimdFloatAdd            0      0.00%     68.49% # Number of instructions issued per FU type, per thread (Count)
system.cpu1.statIssuedInstType_0::SimdFloatAlu            0      0.00%     68.49% # Number of instructions issued per FU type, per thread (Count)
system.cpu1.statIssuedInstType_0::SimdFloatCmp            0      0.00%     68.49% # Number of instructions issued per FU type, per thread (Count)
system.cpu1.statIssuedInstType_0::SimdFloatCvt            0      0.00%     68.49% # Number of instructions issued per FU type, per thread (Count)
system.cpu1.statIssuedInstType_0::SimdFloatDiv            0      0.00%     68.49% # Number of instructions issued per FU type, per thread (Count)
system.cpu1.statIssuedInstType_0::SimdFloatMisc            0      0.00%     68.49% # Number of instructions issued per FU type, per thread (Count)
system.cpu1.statIssuedInstType_0::SimdFloatMult            0      0.00%     68.49% # Number of instructions issued per FU type, per thread (Count)
system.cpu1.statIssuedInstType_0::SimdFloatMultAcc            0      0.00%     68.49% # Number of instructions issued per FU type, per thread (Count)
system.cpu1.statIssuedInstType_0::SimdFloatSqrt            0      0.00%     68.49% # Number of instructions issued per FU type, per thread (Count)
system.cpu1.statIssuedInstType_0::SimdReduceAdd            0      0.00%     68.49% # Number of instructions issued per FU type, per thread (Count)
system.cpu1.statIssuedInstType_0::SimdReduceAlu            0      0.00%     68.49% # Number of instructions issued per FU type, per thread (Count)
system.cpu1.statIssuedInstType_0::SimdReduceCmp            0      0.00%     68.49% # Number of instructions issued per FU type, per thread (Count)
system.cpu1.statIssuedInstType_0::SimdFloatReduceAdd            0      0.00%     68.49% # Number of instructions issued per FU type, per thread (Count)
system.cpu1.statIssuedInstType_0::SimdFloatReduceCmp            0      0.00%     68.49% # Number of instructions issued per FU type, per thread (Count)
system.cpu1.statIssuedInstType_0::SimdAes            0      0.00%     68.49% # Number of instructions issued per FU type, per thread (Count)
system.cpu1.statIssuedInstType_0::SimdAesMix            0      0.00%     68.49% # Number of instructions issued per FU type, per thread (Count)
system.cpu1.statIssuedInstType_0::SimdSha1Hash            0      0.00%     68.49% # Number of instructions issued per FU type, per thread (Count)
system.cpu1.statIssuedInstType_0::SimdSha1Hash2            0      0.00%     68.49% # Number of instructions issued per FU type, per thread (Count)
system.cpu1.statIssuedInstType_0::SimdSha256Hash            0      0.00%     68.49% # Number of instructions issued per FU type, per thread (Count)
system.cpu1.statIssuedInstType_0::SimdSha256Hash2            0      0.00%     68.49% # Number of instructions issued per FU type, per thread (Count)
system.cpu1.statIssuedInstType_0::SimdShaSigma2            0      0.00%     68.49% # Number of instructions issued per FU type, per thread (Count)
system.cpu1.statIssuedInstType_0::SimdShaSigma3            0      0.00%     68.49% # Number of instructions issued per FU type, per thread (Count)
system.cpu1.statIssuedInstType_0::SimdPredAlu            0      0.00%     68.49% # Number of instructions issued per FU type, per thread (Count)
system.cpu1.statIssuedInstType_0::MemRead       937741     10.95%     79.44% # Number of instructions issued per FU type, per thread (Count)
system.cpu1.statIssuedInstType_0::MemWrite       914781     10.69%     90.13% # Number of instructions issued per FU type, per thread (Count)
system.cpu1.statIssuedInstType_0::FloatMemRead       433465      5.06%     95.19% # Number of instructions issued per FU type, per thread (Count)
system.cpu1.statIssuedInstType_0::FloatMemWrite       411938      4.81%    100.00% # Number of instructions issued per FU type, per thread (Count)
system.cpu1.statIssuedInstType_0::IprAccess            0      0.00%    100.00% # Number of instructions issued per FU type, per thread (Count)
system.cpu1.statIssuedInstType_0::InstPrefetch            0      0.00%    100.00% # Number of instructions issued per FU type, per thread (Count)
system.cpu1.statIssuedInstType_0::total       8561141                       # Number of instructions issued per FU type, per thread (Count)
system.cpu1.issueRate                        0.735857                       # Inst issue rate ((Count/Cycle))
system.cpu1.fuBusy                             100054                       # FU busy when requested (Count)
system.cpu1.fuBusyRate                       0.011687                       # FU busy rate (busy events/executed inst) ((Count/Count))
system.cpu1.intInstQueueReads                25941240                       # Number of integer instruction queue reads (Count)
system.cpu1.intInstQueueWrites                9168369                       # Number of integer instruction queue writes (Count)
system.cpu1.intInstQueueWakeupAccesses        7587198                       # Number of integer instruction queue wakeup accesses (Count)
system.cpu1.fpInstQueueReads                  1849669                       # Number of floating instruction queue reads (Count)
system.cpu1.fpInstQueueWrites                  980354                       # Number of floating instruction queue writes (Count)
system.cpu1.fpInstQueueWakeupAccesses          898009                       # Number of floating instruction queue wakeup accesses (Count)
system.cpu1.vecInstQueueReads                       0                       # Number of vector instruction queue reads (Count)
system.cpu1.vecInstQueueWrites                      0                       # Number of vector instruction queue writes (Count)
system.cpu1.vecInstQueueWakeupAccesses              0                       # Number of vector instruction queue wakeup accesses (Count)
system.cpu1.intAluAccesses                    7700700                       # Number of integer alu accesses (Count)
system.cpu1.fpAluAccesses                      941455                       # Number of floating point alu accesses (Count)
system.cpu1.vecAluAccesses                          0                       # Number of vector alu accesses (Count)
system.cpu1.numInsts                          8522559                       # Number of executed instructions (Count)
system.cpu1.numLoadInsts                      1359534                       # Number of load instructions executed (Count)
system.cpu1.numSquashedInsts                    38582                       # Number of squashed instructions skipped in execute (Count)
system.cpu1.numSwp                                  0                       # Number of swp insts executed (Count)
system.cpu1.numNop                                  0                       # Number of nop insts executed (Count)
system.cpu1.numRefs                           2683229                       # Number of memory reference insts executed (Count)
system.cpu1.numBranches                        451040                       # Number of branches executed (Count)
[...]
system.ruby.network.ext_out_link_utilization      4220662                       (Unspecified)
system.ruby.network.flit_network_latency | 80232471000                       |210147005000                       | 19627805000                       (Unspecified)
system.ruby.network.flit_queueing_latency |  2189183000                       |  2259317000                       |   148805500                       (Unspecified)
system.ruby.network.flits_injected       |     1000494     23.70%     23.70% |     2922558     69.24%     92.95% |      297613      7.05%    100.00% (Unspecified)
system.ruby.network.flits_injected::total      4220665                       (Unspecified)
system.ruby.network.flits_received       |     1000493     23.70%     23.70% |     2922558     69.24%     92.95% |      297611      7.05%    100.00% (Unspecified)
system.ruby.network.flits_received::total      4220662                       (Unspecified)
system.ruby.network.int_link_utilization     10463524                       (Unspecified)
system.ruby.network.packet_network_latency | 59724879000                       | 69425930500                       | 19627805000                       (Unspecified)
system.ruby.network.packet_queueing_latency |  1788501000                       |   586483000                       |   148805500                       (Unspecified)
system.ruby.network.packets_injected     |      816122     42.29%     42.29% |      816118     42.29%     84.58% |      297613     15.42%    100.00% (Unspecified)
system.ruby.network.packets_injected::total      1929853                       (Unspecified)
system.ruby.network.packets_received     |      816121     42.29%     42.29% |      816118     42.29%     84.58% |      297611     15.42%    100.00% (Unspecified)
system.ruby.network.packets_received::total      1929850                       (Unspecified)
system.ruby.network.routers00.Var_1                 0                       (Unspecified)
system.ruby.network.routers00.Var_2                 0                       (Unspecified)
system.ruby.network.routers00.Var_3                 0                       (Unspecified)
system.ruby.network.routers00.all_counts            0                       (Unspecified)
system.ruby.network.routers00.buffer_reads       667819                       (Unspecified)
system.ruby.network.routers00.buffer_writes       667819                       (Unspecified)
system.ruby.network.routers00.crossbar_activity       667819                       (Unspecified)
system.ruby.network.routers00.detour_counts            0                       (Unspecified)
system.ruby.network.routers00.regular_var            0                       (Unspecified)
system.ruby.network.routers00.risk_counts            0                       (Unspecified)
system.ruby.network.routers00.sw_input_arbiter_activity       672329                       (Unspecified)
system.ruby.network.routers00.sw_output_arbiter_activity       667819                       (Unspecified)
system.ruby.network.routers01.Var_1                 0                       (Unspecified)
system.ruby.network.routers01.Var_2                 0                       (Unspecified)
system.ruby.network.routers01.Var_3                 0                       (Unspecified)
system.ruby.network.routers01.all_counts            0                       (Unspecified)
system.ruby.network.routers01.buffer_reads       932513                       (Unspecified)
system.ruby.network.routers01.buffer_writes       932513                       (Unspecified)
system.ruby.network.routers01.crossbar_activity       932513                       (Unspecified)
system.ruby.network.routers01.detour_counts            0                       (Unspecified)
system.ruby.network.routers01.regular_var            0                       (Unspecified)
system.ruby.network.routers01.risk_counts            0                       (Unspecified)
system.ruby.network.routers01.sw_input_arbiter_activity       942760                       (Unspecified)
system.ruby.network.routers01.sw_output_arbiter_activity       932513                       (Unspecified)
system.ruby.network.routers02.Var_1                 0                       (Unspecified)
system.ruby.network.routers02.Var_2                 0                       (Unspecified)
system.ruby.network.routers02.Var_3                 0                       (Unspecified)
system.ruby.network.routers02.all_counts            0                       (Unspecified)
system.ruby.network.routers02.buffer_reads       935750                       (Unspecified)
system.ruby.network.routers02.buffer_writes       935750                       (Unspecified)
system.ruby.network.routers02.crossbar_activity       935750                       (Unspecified)
system.ruby.network.routers02.detour_counts            0                       (Unspecified)
system.ruby.network.routers02.regular_var            0                       (Unspecified)
system.ruby.network.routers02.risk_counts            0                       (Unspecified)
system.ruby.network.routers02.sw_input_arbiter_activity       946109                       (Unspecified)
system.ruby.network.routers02.sw_output_arbiter_activity       935750                       (Unspecified)
system.ruby.network.routers03.Var_1                 0                       (Unspecified)
system.ruby.network.routers03.Var_2                 0                       (Unspecified)
system.ruby.network.routers03.Var_3                 0                       (Unspecified)
system.ruby.network.routers03.all_counts            0                       (Unspecified)
system.ruby.network.routers03.buffer_reads       658877                       (Unspecified)
system.ruby.network.routers03.buffer_writes       658877                       (Unspecified)
system.ruby.network.routers03.crossbar_activity       658877                       (Unspecified)
system.ruby.network.routers03.detour_counts            0                       (Unspecified)
system.ruby.network.routers03.regular_var            0                       (Unspecified)
system.ruby.network.routers03.risk_counts            0                       (Unspecified)
system.ruby.network.routers03.sw_input_arbiter_activity       663130                       (Unspecified)
system.ruby.network.routers03.sw_output_arbiter_activity       658877                       (Unspecified)
system.ruby.network.routers04.Var_1                 0                       (Unspecified)
system.ruby.network.routers04.Var_2                 0                       (Unspecified)
system.ruby.network.routers04.Var_3                 0                       (Unspecified)
system.ruby.network.routers04.all_counts            0                       (Unspecified)
system.ruby.network.routers04.buffer_reads       914656                       (Unspecified)
system.ruby.network.routers04.buffer_writes       914656                       (Unspecified)
system.ruby.network.routers04.crossbar_activity       914656                       (Unspecified)
system.ruby.network.routers04.detour_counts            0                       (Unspecified)
system.ruby.network.routers04.regular_var            0                       (Unspecified)
system.ruby.network.routers04.risk_counts            0                       (Unspecified)
system.ruby.network.routers04.sw_input_arbiter_activity       924263                       (Unspecified)
system.ruby.network.routers04.sw_output_arbiter_activity       914656                       (Unspecified)
system.ruby.network.routers05.Var_1                 0                       (Unspecified)
system.ruby.network.routers05.Var_2                 0                       (Unspecified)
system.ruby.network.routers05.Var_3                 0                       (Unspecified)
system.ruby.network.routers05.all_counts            0                       (Unspecified)
system.ruby.network.routers05.buffer_reads      1180403                       (Unspecified)
system.ruby.network.routers05.buffer_writes      1180403                       (Unspecified)
system.ruby.network.routers05.crossbar_activity      1180403                       (Unspecified)
system.ruby.network.routers05.detour_counts            0                       (Unspecified)
system.ruby.network.routers05.regular_var            0                       (Unspecified)
system.ruby.network.routers05.risk_counts            0                       (Unspecified)
system.ruby.network.routers05.sw_input_arbiter_activity      1195794                       (Unspecified)
system.ruby.network.routers05.sw_output_arbiter_activity      1180403                       (Unspecified)
system.ruby.network.routers06.Var_1                 0                       (Unspecified)
system.ruby.network.routers06.Var_2                 0                       (Unspecified)
system.ruby.network.routers06.Var_3                 0                       (Unspecified)
system.ruby.network.routers06.all_counts            0                       (Unspecified)
system.ruby.network.routers06.buffer_reads      1181547                       (Unspecified)
system.ruby.network.routers06.buffer_writes      1181547                       (Unspecified)
system.ruby.network.routers06.crossbar_activity      1181547                       (Unspecified)
system.ruby.network.routers06.detour_counts            0                       (Unspecified)
system.ruby.network.routers06.regular_var            0                       (Unspecified)
system.ruby.network.routers06.risk_counts            0                       (Unspecified)
system.ruby.network.routers06.sw_input_arbiter_activity      1197924                       (Unspecified)
system.ruby.network.routers06.sw_output_arbiter_activity      1181547                       (Unspecified)
system.ruby.network.routers07.Var_1                 0                       (Unspecified)
system.ruby.network.routers07.Var_2                 0                       (Unspecified)
system.ruby.network.routers07.Var_3                 0                       (Unspecified)
system.ruby.network.routers07.all_counts            0                       (Unspecified)
system.ruby.network.routers07.buffer_reads       902182                       (Unspecified)
system.ruby.network.routers07.buffer_writes       902182                       (Unspecified)
system.ruby.network.routers07.crossbar_activity       902182                       (Unspecified)
system.ruby.network.routers07.detour_counts            0                       (Unspecified)
system.ruby.network.routers07.regular_var            0                       (Unspecified)
system.ruby.network.routers07.risk_counts            0                       (Unspecified)
system.ruby.network.routers07.sw_input_arbiter_activity       911984                       (Unspecified)
system.ruby.network.routers07.sw_output_arbiter_activity       902182                       (Unspecified)
system.ruby.network.routers08.Var_1                 0                       (Unspecified)
system.ruby.network.routers08.Var_2                 0                       (Unspecified)
system.ruby.network.routers08.Var_3                 0                       (Unspecified)
system.ruby.network.routers08.all_counts            0                       (Unspecified)
system.ruby.network.routers08.buffer_reads       910966                       (Unspecified)
system.ruby.network.routers08.buffer_writes       910966                       (Unspecified)
system.ruby.network.routers08.crossbar_activity       910966                       (Unspecified)
system.ruby.network.routers08.detour_counts            0                       (Unspecified)
system.ruby.network.routers08.regular_var            0                       (Unspecified)
system.ruby.network.routers08.risk_counts            0                       (Unspecified)
system.ruby.network.routers08.sw_input_arbiter_activity       920411                       (Unspecified)
system.ruby.network.routers08.sw_output_arbiter_activity       910966                       (Unspecified)
system.ruby.network.routers09.Var_1                 0                       (Unspecified)
system.ruby.network.routers09.Var_2                 0                       (Unspecified)
system.ruby.network.routers09.Var_3                 0                       (Unspecified)
system.ruby.network.routers09.all_counts            0                       (Unspecified)
system.ruby.network.routers09.buffer_reads      1179932                       (Unspecified)
system.ruby.network.routers09.buffer_writes      1179932                       (Unspecified)
system.ruby.network.routers09.crossbar_activity      1179932                       (Unspecified)
system.ruby.network.routers09.detour_counts            0                       (Unspecified)
system.ruby.network.routers09.regular_var            0                       (Unspecified)
system.ruby.network.routers09.risk_counts            0                       (Unspecified)
system.ruby.network.routers09.sw_input_arbiter_activity      1195289                       (Unspecified)
system.ruby.network.routers09.sw_output_arbiter_activity      1179932                       (Unspecified)
system.ruby.network.routers10.Var_1                 0                       (Unspecified)
system.ruby.network.routers10.Var_2                 0                       (Unspecified)
system.ruby.network.routers10.Var_3                 0                       (Unspecified)
system.ruby.network.routers10.all_counts            0                       (Unspecified)
system.ruby.network.routers10.buffer_reads      1177184                       (Unspecified)
system.ruby.network.routers10.buffer_writes      1177184                       (Unspecified)
system.ruby.network.routers10.crossbar_activity      1177184                       (Unspecified)
system.ruby.network.routers10.detour_counts            0                       (Unspecified)
system.ruby.network.routers10.regular_var            0                       (Unspecified)
system.ruby.network.routers10.risk_counts            0                       (Unspecified)
system.ruby.network.routers10.sw_input_arbiter_activity      1192248                       (Unspecified)
system.ruby.network.routers10.sw_output_arbiter_activity      1177184                       (Unspecified)
system.ruby.network.routers11.Var_1                 0                       (Unspecified)
system.ruby.network.routers11.Var_2                 0                       (Unspecified)
system.ruby.network.routers11.Var_3                 0                       (Unspecified)
system.ruby.network.routers11.all_counts            0                       (Unspecified)
system.ruby.network.routers11.buffer_reads       897826                       (Unspecified)
system.ruby.network.routers11.buffer_writes       897826                       (Unspecified)
system.ruby.network.routers11.crossbar_activity       897826                       (Unspecified)
system.ruby.network.routers11.detour_counts            0                       (Unspecified)
system.ruby.network.routers11.regular_var            0                       (Unspecified)
system.ruby.network.routers11.risk_counts            0                       (Unspecified)
system.ruby.network.routers11.sw_input_arbiter_activity       906932                       (Unspecified)
system.ruby.network.routers11.sw_output_arbiter_activity       897826                       (Unspecified)
system.ruby.network.routers12.Var_1                 0                       (Unspecified)
system.ruby.network.routers12.Var_2                 0                       (Unspecified)
system.ruby.network.routers12.Var_3                 0                       (Unspecified)
system.ruby.network.routers12.all_counts            0                       (Unspecified)
system.ruby.network.routers12.buffer_reads       655301                       (Unspecified)
system.ruby.network.routers12.buffer_writes       655301                       (Unspecified)
system.ruby.network.routers12.crossbar_activity       655301                       (Unspecified)
system.ruby.network.routers12.detour_counts            0                       (Unspecified)
system.ruby.network.routers12.regular_var            0                       (Unspecified)
system.ruby.network.routers12.risk_counts            0                       (Unspecified)
system.ruby.network.routers12.sw_input_arbiter_activity       659565                       (Unspecified)
system.ruby.network.routers12.sw_output_arbiter_activity       655301                       (Unspecified)
system.ruby.network.routers13.Var_1                 0                       (Unspecified)
system.ruby.network.routers13.Var_2                 0                       (Unspecified)
system.ruby.network.routers13.Var_3                 0                       (Unspecified)
system.ruby.network.routers13.all_counts            0                       (Unspecified)
system.ruby.network.routers13.buffer_reads       922528                       (Unspecified)
system.ruby.network.routers13.buffer_writes       922528                       (Unspecified)
system.ruby.network.routers13.crossbar_activity       922528                       (Unspecified)
system.ruby.network.routers13.detour_counts            0                       (Unspecified)
system.ruby.network.routers13.regular_var            0                       (Unspecified)
system.ruby.network.routers13.risk_counts            0                       (Unspecified)
system.ruby.network.routers13.sw_input_arbiter_activity       932461                       (Unspecified)
system.ruby.network.routers13.sw_output_arbiter_activity       922528                       (Unspecified)
system.ruby.network.routers14.Var_1                 0                       (Unspecified)
system.ruby.network.routers14.Var_2                 0                       (Unspecified)
system.ruby.network.routers14.Var_3                 0                       (Unspecified)
system.ruby.network.routers14.all_counts            0                       (Unspecified)
system.ruby.network.routers14.buffer_reads       916689                       (Unspecified)
system.ruby.network.routers14.buffer_writes       916689                       (Unspecified)
system.ruby.network.routers14.crossbar_activity       916689                       (Unspecified)
system.ruby.network.routers14.detour_counts            0                       (Unspecified)
system.ruby.network.routers14.regular_var            0                       (Unspecified)
system.ruby.network.routers14.risk_counts            0                       (Unspecified)
system.ruby.network.routers14.sw_input_arbiter_activity       926469                       (Unspecified)
system.ruby.network.routers14.sw_output_arbiter_activity       916689                       (Unspecified)
system.ruby.network.routers15.Var_1                 0                       (Unspecified)
system.ruby.network.routers15.Var_2                 0                       (Unspecified)
system.ruby.network.routers15.Var_3                 0                       (Unspecified)
system.ruby.network.routers15.all_counts            0                       (Unspecified)
system.ruby.network.routers15.buffer_reads       650013                       (Unspecified)
system.ruby.network.routers15.buffer_writes       650013                       (Unspecified)
system.ruby.network.routers15.crossbar_activity       650013                       (Unspecified)
system.ruby.network.routers15.detour_counts            0                       (Unspecified)
system.ruby.network.routers15.regular_var            0                       (Unspecified)
system.ruby.network.routers15.risk_counts            0                       (Unspecified)
system.ruby.network.routers15.sw_input_arbiter_activity       654260                       (Unspecified)
system.ruby.network.routers15.sw_output_arbiter_activity       650013                       (Unspecified)

---------- End Simulation Statistics   ----------
