
---------- Begin Simulation Statistics ----------
simSeconds                                   0.006492                       # Number of seconds simulated (Second)
simTicks                                   6492172000                       # Number of ticks simulated (Tick)
finalTick                                  6492172000                       # Number of ticks from beginning of simulation (restored from checkpoints and never reset) (Tick)
simFreq                                  1000000000000                       # The number of ticks per simulated second ((Tick/Second))
hostSeconds                                   1204.99                       # Real time elapsed on the host (Second)
hostTickRate                                  5387721                       # The number of ticks simulated per host second (ticks/s) ((Tick/Second))
hostMemory                                   11458208                       # Number of bytes of host memory used (Byte)
simInsts                                     82226288                       # Number of instructions simulated (Count)
simOps                                      125167296                       # Number of ops (including micro ops) simulated (Count)
hostInstRate                                    68238                       # Simulator instruction rate (inst/s) ((Count/Second))
hostOpRate                                     103874                       # Simulator op (including micro ops) rate (op/s) ((Count/Second))
system.clk_domain.clock                          1000                       # Clock period in ticks (Tick)
system.cpu0.numCycles                        12854197                       # Number of cpu cycles simulated (Cycle)
system.cpu0.numWorkItemsStarted                     0                       # Number of work items this cpu started (Count)
system.cpu0.numWorkItemsCompleted                   0                       # Number of work items this cpu completed (Count)
system.cpu0.instsAdded                        8982923                       # Number of instructions added to the IQ (excludes non-spec) (Count)
system.cpu0.nonSpecInstsAdded                    1082                       # Number of non-speculative instructions added to the IQ (Count)
system.cpu0.instsIssued                       8561250                       # Number of instructions issued (Count)
system.cpu0.squashedInstsIssued                  2877                       # Number of squashed instructions issued (Count)
system.cpu0.squashedInstsExamined             1161049                       # Number of squashed instructions iterated over during squash; mainly for profiling (Count)
system.cpu0.squashedOperandsExamined          2495496                       # Number of squashed operands that are examined and possibly removed from graph (Count)
system.cpu0.squashedNonSpecRemoved                229                       # Number of squashed non-spec instructions that were removed (Count)
system.cpu0.numIssuedDist::samples           11606455                       # Number of insts issued each cycle (Count)
system.cpu0.numIssuedDist::mean              0.737628                       # Number of insts issued each cycle (Count)
system.cpu0.numIssuedDist::stdev             1.552437                       # Number of insts issued each cycle (Count)
system.cpu0.numIssuedDist::underflows               0      0.00%      0.00% # Number of insts issued each cycle (Count)
system.cpu0.numIssuedDist::0                  8694328     74.91%     74.91% # Number of insts issued each cycle (Count)
system.cpu0.numIssuedDist::1                   681540      5.87%     80.78% # Number of insts issued each cycle (Count)
system.cpu0.numIssuedDist::2                   825134      7.11%     87.89% # Number of insts issued each cycle (Count)
system.cpu0.numIssuedDist::3                   457711      3.94%     91.83% # Number of insts issued each cycle (Count)
system.cpu0.numIssuedDist::4                   364529      3.14%     94.98% # Number of insts issued each cycle (Count)
system.cpu0.numIssuedDist::5                   291437      2.51%     97.49% # Number of insts issued each cycle (Count)
system.cpu0.numIssuedDist::6                   145873      1.26%     98.74% # Number of insts issued each cycle (Count)
system.cpu0.numIssuedDist::7                   101454      0.87%     99.62% # Number of insts issued each cycle (Count)
system.cpu0.numIssuedDist::8                    44449      0.38%    100.00% # Number of insts issued each cycle (Count)
system.cpu0.numIssuedDist::overflows                0      0.00%    100.00% # Number of insts issued each cycle (Count)
system.cpu0.numIssuedDist::min_value                0                       # Number of insts issued each cycle (Count)
system.cpu0.numIssuedDist::max_value                8                       # Number of insts issued each cycle (Count)
system.cpu0.numIssuedDist::total             11606455                       # Number of insts issued each cycle (Count)
system.cpu0.statFuBusy::No_OpClass                  0      0.00%      0.00% # attempts to use FU when none available (Count)
system.cpu0.statFuBusy::IntAlu                  42064     42.09%     42.09% # attempts to use FU when none available (Count)
system.cpu0.statFuBusy::IntMult                     0      0.00%     42.09% # attempts to use FU when none available (Count)
system.cpu0.statFuBusy::IntDiv                      0      0.00%     42.09% # attempts to use FU when none available (Count)
system.cpu0.statFuBusy::FloatAdd                    0      0.00%     42.09% # attempts to use FU when none available (Count)
system.cpu0.statFuBusy::FloatCmp                    0      0.00%     42.09% # attempts to use FU when none available (Count)
system.cpu0.statFuBusy::FloatCvt                    1      0.00%     42.09% # attempts to use FU when none available (Count)
system.cpu0.statFuBusy::FloatMult                   0      0.00%     42.09% # attempts to use FU when none available (Count)
system.cpu0.statFuBusy::FloatMultAcc                0      0.00%     42.09% # attempts to use FU when none available (Count)
system.cpu0.statFuBusy::FloatDiv                    0      0.00%     42.09% # attempts to use FU when none available (Count)
system.cpu0.statFuBusy::FloatMisc                   0      0.00%     42.09% # attempts to use FU when none available (Count)
system.cpu0.statFuBusy::FloatSqrt                   0      0.00%     42.09% # attempts to use FU when none available (Count)
system.cpu0.statFuBusy::SimdAdd                     0      0.00%     42.09% # attempts to use FU when none available (Count)
system.cpu0.statFuBusy::SimdAddAcc                  0      0.00%     42.09% # attempts to use FU when none available (Count)
system.cpu0.statFuBusy::SimdAlu                   120      0.12%     42.21% # attempts to use FU when none available (Count)
system.cpu0.statFuBusy::SimdCmp                     0      0.00%     42.21% # attempts to use FU when none available (Count)
system.cpu0.statFuBusy::SimdCvt                   128      0.13%     42.34% # attempts to use FU when none available (Count)
system.cpu0.statFuBusy::SimdMisc                    0      0.00%     42.34% # attempts to use FU when none available (Count)
system.cpu0.statFuBusy::SimdMult                    0      0.00%     42.34% # attempts to use FU when none available (Count)
system.cpu0.statFuBusy::SimdMultAcc                 0      0.00%     42.34% # attempts to use FU when none available (Count)
system.cpu0.statFuBusy::SimdShift                 144      0.14%     42.48% # attempts to use FU when none available (Count)
system.cpu0.statFuBusy::SimdShiftAcc                0      0.00%     42.48% # attempts to use FU when none available (Count)
system.cpu0.statFuBusy::SimdDiv                     0      0.00%     42.48% # attempts to use FU when none available (Count)
system.cpu0.statFuBusy::SimdSqrt                    0      0.00%     42.48% # attempts to use FU when none available (Count)
system.cpu0.statFuBusy::SimdFloatAdd                0      0.00%     42.48% # attempts to use FU when none available (Count)
system.cpu0.statFuBusy::SimdFloatAlu                0      0.00%     42.48% # attempts to use FU when none available (Count)
system.cpu0.statFuBusy::SimdFloatCmp                0      0.00%     42.48% # attempts to use FU when none available (Count)
system.cpu0.statFuBusy::SimdFloatCvt                0      0.00%     42.48% # attempts to use FU when none available (Count)
system.cpu0.statFuBusy::SimdFloatDiv                0      0.00%     42.48% # attempts to use FU when none available (Count)
system.cpu0.statFuBusy::SimdFloatMisc               0      0.00%     42.48% # attempts to use FU when none available (Count)
system.cpu0.statFuBusy::SimdFloatMult               0      0.00%     42.48% # attempts to use FU when none available (Count)
system.cpu0.statFuBusy::SimdFloatMultAcc            0      0.00%     42.48% # attempts to use FU when none available (Count)
system.cpu0.statFuBusy::SimdFloatSqrt               0      0.00%     42.48% # attempts to use FU when none available (Count)
system.cpu0.statFuBusy::SimdReduceAdd               0      0.00%     42.48% # attempts to use FU when none available (Count)
system.cpu0.statFuBusy::SimdReduceAlu               0      0.00%     42.48% # attempts to use FU when none available (Count)
system.cpu0.statFuBusy::SimdReduceCmp               0      0.00%     42.48% # attempts to use FU when none available (Count)
system.cpu0.statFuBusy::SimdFloatReduceAdd            0      0.00%     42.48% # attempts to use FU when none available (Count)
system.cpu0.statFuBusy::SimdFloatReduceCmp            0      0.00%     42.48% # attempts to use FU when none available (Count)
system.cpu0.statFuBusy::SimdAes                     0      0.00%     42.48% # attempts to use FU when none available (Count)
system.cpu0.statFuBusy::SimdAesMix                  0      0.00%     42.48% # attempts to use FU when none available (Count)
system.cpu0.statFuBusy::SimdSha1Hash                0      0.00%     42.48% # attempts to use FU when none available (Count)
system.cpu0.statFuBusy::SimdSha1Hash2               0      0.00%     42.48% # attempts to use FU when none available (Count)
system.cpu0.statFuBusy::SimdSha256Hash              0      0.00%     42.48% # attempts to use FU when none available (Count)
system.cpu0.statFuBusy::SimdSha256Hash2             0      0.00%     42.48% # attempts to use FU when none available (Count)
system.cpu0.statFuBusy::SimdShaSigma2               0      0.00%     42.48% # attempts to use FU when none available (Count)
system.cpu0.statFuBusy::SimdShaSigma3               0      0.00%     42.48% # attempts to use FU when none available (Count)
system.cpu0.statFuBusy::SimdPredAlu                 0      0.00%     42.48% # attempts to use FU when none available (Count)
system.cpu0.statFuBusy::MemRead                 13305     13.31%     55.80% # attempts to use FU when none available (Count)
system.cpu0.statFuBusy::MemWrite                11028     11.04%     66.83% # attempts to use FU when none available (Count)
system.cpu0.statFuBusy::FloatMemRead             7476      7.48%     74.31% # attempts to use FU when none available (Count)
system.cpu0.statFuBusy::FloatMemWrite           25669     25.69%    100.00% # attempts to use FU when none available (Count)
system.cpu0.statFuBusy::IprAccess                   0      0.00%    100.00% # attempts to use FU when none available (Count)
system.cpu0.statFuBusy::InstPrefetch                0      0.00%    100.00% # attempts to use FU when none available (Count)
system.cpu0.statIssuedInstType_0::No_OpClass        19598      0.23%      0.23% # Number of instructions issued per FU type, per thread (Count)
system.cpu0.statIssuedInstType_0::IntAlu      5744174     67.10%     67.32% # Number of instructions issued per FU type, per thread (Count)
system.cpu0.statIssuedInstType_0::IntMult           35      0.00%     67.32% # Number of instructions issued per FU type, per thread (Count)
system.cpu0.statIssuedInstType_0::IntDiv        38319      0.45%     67.77% # Number of instructions issued per FU type, per thread (Count)
system.cpu0.statIssuedInstType_0::FloatAdd         4367      0.05%     67.82% # Number of instructions issued per FU type, per thread (Count)
system.cpu0.statIssuedInstType_0::FloatCmp            0      0.00%     67.82% # Number of instructions issued per FU type, per thread (Count)
system.cpu0.statIssuedInstType_0::FloatCvt         1648      0.02%     67.84% # Number of instructions issued per FU type, per thread (Count)
system.cpu0.statIssuedInstType_0::FloatMult            0      0.00%     67.84% # Number of instructions issued per FU type, per thread (Count)
system.cpu0.statIssuedInstType_0::FloatMultAcc            0      0.00%     67.84% # Number of instructions issued per FU type, per thread (Count)
system.cpu0.statIssuedInstType_0::FloatDiv            0      0.00%     67.84% # Number of instructions issued per FU type, per thread (Count)
system.cpu0.statIssuedInstType_0::FloatMisc            0      0.00%     67.84% # Number of instructions issued per FU type, per thread (Count)
system.cpu0.statIssuedInstType_0::FloatSqrt            0      0.00%     67.84% # Number of instructions issued per FU type, per thread (Count)
system.cpu0.statIssuedInstType_0::SimdAdd         8325      0.10%     67.94% # Number of instructions issued per FU type, per thread (Count)
system.cpu0.statIssuedInstType_0::SimdAddAcc            0      0.00%     67.94% # Number of instructions issued per FU type, per thread (Count)
system.cpu0.statIssuedInstType_0::SimdAlu        16944      0.20%     68.14% # Number of instructions issued per FU type, per thread (Count)
system.cpu0.statIssuedInstType_0::SimdCmp            0      0.00%     68.14% # Number of instructions issued per FU type, per thread (Count)
system.cpu0.statIssuedInstType_0::SimdCvt        18609      0.22%     68.35% # Number of instructions issued per FU type, per thread (Count)
system.cpu0.statIssuedInstType_0::SimdMisc         8789      0.10%     68.46% # Number of instructions issued per FU type, per thread (Count)
system.cpu0.statIssuedInstType_0::SimdMult            0      0.00%     68.46% # Number of instructions issued per FU type, per thread (Count)
system.cpu0.statIssuedInstType_0::SimdMultAcc            0      0.00%     68.46% # Number of instructions issued per FU type, per thread (Count)
system.cpu0.statIssuedInstType_0::SimdShift         2556      0.03%     68.49% # Number of instructions issued per FU type, per thread (Count)
system.cpu0.statIssuedInstType_0::SimdShiftAcc            0      0.00%     68.49% # Number of instructions issued per FU type, per thread (Count)
system.cpu0.statIssuedInstType_0::SimdDiv            0      0.00%     68.49% # Number of instructions issued per FU type, per thread (Count)
system.cpu0.statIssuedInstType_0::SimdSqrt            0      0.00%     68.49% # Number of instructions issued per FU type, per thread (Count)
system.cpu0.statIssuedInstType_0::SimdFloatAdd            0      0.00%     68.49% # Number of instructions issued per FU type, per thread (Count)
system.cpu0.statIssuedInstType_0::SimdFloatAlu            0      0.00%     68.49% # Number of instructions issued per FU type, per thread (Count)
system.cpu0.statIssuedInstType_0::SimdFloatCmp            0      0.00%     68.49% # Number of instructions issued per FU type, per thread (Count)
system.cpu0.statIssuedInstType_0::SimdFloatCvt            0      0.00%     68.49% # Number of instructions issued per FU type, per thread (Count)
system.cpu0.statIssuedInstType_0::SimdFloatDiv            0      0.00%     68.49% # Number of instructions issued per FU type, per thread (Count)
system.cpu0.statIssuedInstType_0::SimdFloatMisc            0      0.00%     68.49% # Number of instructions issued per FU type, per thread (Count)
system.cpu0.statIssuedInstType_0::SimdFloatMult            0      0.00%     68.49% # Number of instructions issued per FU type, per thread (Count)
system.cpu0.statIssuedInstType_0::SimdFloatMultAcc            0      0.00%     68.49% # Number of instructions issued per FU type, per thread (Count)
system.cpu0.statIssuedInstType_0::SimdFloatSqrt            0      0.00%     68.49% # Number of instructions issued per FU type, per thread (Count)
system.cpu0.statIssuedInstType_0::SimdReduceAdd            0      0.00%     68.49% # Number of instructions issued per FU type, per thread (Count)
system.cpu0.statIssuedInstType_0::SimdReduceAlu            0      0.00%     68.49% # Number of instructions issued per FU type, per thread (Count)
system.cpu0.statIssuedInstType_0::SimdReduceCmp            0      0.00%     68.49% # Number of instructions issued per FU type, per thread (Count)
system.cpu0.statIssuedInstType_0::SimdFloatReduceAdd            0      0.00%     68.49% # Number of instructions issued per FU type, per thread (Count)
system.cpu0.statIssuedInstType_0::SimdFloatReduceCmp            0      0.00%     68.49% # Number of instructions issued per FU type, per thread (Count)
system.cpu0.statIssuedInstType_0::SimdAes            0      0.00%     68.49% # Number of instructions issued per FU type, per thread (Count)
system.cpu0.statIssuedInstType_0::SimdAesMix            0      0.00%     68.49% # Number of instructions issued per FU type, per thread (Count)
system.cpu0.statIssuedInstType_0::SimdSha1Hash            0      0.00%     68.49% # Number of instructions issued per FU type, per thread (Count)
system.cpu0.statIssuedInstType_0::SimdSha1Hash2            0      0.00%     68.49% # Number of instructions issued per FU type, per thread (Count)
system.cpu0.statIssuedInstType_0::SimdSha256Hash            0      0.00%     68.49% # Number of instructions issued per FU type, per thread (Count)
system.cpu0.statIssuedInstType_0::SimdSha256Hash2            0      0.00%     68.49% # Number of instructions issued per FU type, per thread (Count)
system.cpu0.statIssuedInstType_0::SimdShaSigma2            0      0.00%     68.49% # Number of instructions issued per FU type, per thread (Count)
system.cpu0.statIssuedInstType_0::SimdShaSigma3            0      0.00%     68.49% # Number of instructions issued per FU type, per thread (Count)
system.cpu0.statIssuedInstType_0::SimdPredAlu            0      0.00%     68.49% # Number of instructions issued per FU type, per thread (Count)
system.cpu0.statIssuedInstType_0::MemRead       937718     10.95%     79.44% # Number of instructions issued per FU type, per thread (Count)
system.cpu0.statIssuedInstType_0::MemWrite       914746     10.68%     90.13% # Number of instructions issued per FU type, per thread (Count)
system.cpu0.statIssuedInstType_0::FloatMemRead       433506      5.06%     95.19% # Number of instructions issued per FU type, per thread (Count)
system.cpu0.statIssuedInstType_0::FloatMemWrite       411916      4.81%    100.00% # Number of instructions issued per FU type, per thread (Count)
system.cpu0.statIssuedInstType_0::IprAccess            0      0.00%    100.00% # Number of instructions issued per FU type, per thread (Count)
system.cpu0.statIssuedInstType_0::InstPrefetch            0      0.00%    100.00% # Number of instructions issued per FU type, per thread (Count)
system.cpu0.statIssuedInstType_0::total       8561250                       # Number of instructions issued per FU type, per thread (Count)
system.cpu0.issueRate                        0.666028                       # Inst issue rate ((Count/Cycle))
system.cpu0.fuBusy                              99935                       # FU busy when requested (Count)
system.cpu0.fuBusyRate                       0.011673                       # FU busy rate (busy events/executed inst) ((Count/Count))
system.cpu0.intInstQueueReads                26982271                       # Number of integer instruction queue reads (Count)
system.cpu0.intInstQueueWrites                9167214                       # Number of integer instruction queue writes (Count)
system.cpu0.intInstQueueWakeupAccesses        7587008                       # Number of integer instruction queue wakeup accesses (Count)
system.cpu0.fpInstQueueReads                  1849496                       # Number of floating instruction queue reads (Count)
system.cpu0.fpInstQueueWrites                  980058                       # Number of floating instruction queue writes (Count)
system.cpu0.fpInstQueueWakeupAccesses          897913                       # Number of floating instruction queue wakeup accesses (Count)
system.cpu0.vecInstQueueReads                       0                       # Number of vector instruction queue reads (Count)
system.cpu0.vecInstQueueWrites                      0                       # Number of vector instruction queue writes (Count)
system.cpu0.vecInstQueueWakeupAccesses              0                       # Number of vector instruction queue wakeup accesses (Count)
system.cpu0.intAluAccesses                    7700228                       # Number of integer alu accesses (Count)
system.cpu0.fpAluAccesses                      941359                       # Number of floating point alu accesses (Count)
system.cpu0.vecAluAccesses                          0                       # Number of vector alu accesses (Count)
system.cpu0.numInsts                          8522776                       # Number of executed instructions (Count)
system.cpu0.numLoadInsts                      1359549                       # Number of load instructions executed (Count)
system.cpu0.numSquashedInsts                    38474                       # Number of squashed instructions skipped in execute (Count)
system.cpu0.numSwp                                  0                       # Number of swp insts executed (Count)
system.cpu0.numNop                                  0                       # Number of nop insts executed (Count)
system.cpu0.numRefs                           2683203                       # Number of memory reference insts executed (Count)
system.cpu0.numBranches                        451080                       # Number of branches executed (Count)
system.cpu0.numStoreInsts                     1323654                       # Number of stores executed (Count)
system.cpu0.numRate                          0.663034                       # Inst execution rate ((Count/Cycle))
system.cpu0.timesIdled                           2392                       # Number of times that the entire CPU went into an idle state and unscheduled itself (Count)
system.cpu0.idleCycles                        1247742                       # Total number of cycles that the CPU has spent unscheduled due to idling (Cycle)
system.cpu0.committedInsts                    5139143                       # Number of Instructions Simulated (Count)
system.cpu0.committedOps                      7822956                       # Number of Ops (including micro ops) Simulated (Count)
system.cpu0.cpi                              2.501234                       # CPI: Cycles Per Instruction ((Cycle/Count))
system.cpu0.totalCpi                         2.501234                       # CPI: Total CPI of All Threads ((Cycle/Count))
system.cpu0.ipc                              0.399803                       # IPC: Instructions Per Cycle ((Count/Cycle))
system.cpu0.totalIpc                         0.399803                       # IPC: Total IPC of All Threads ((Count/Cycle))
system.cpu0.intRegfileReads                  11802751                       # Number of integer regfile reads (Count)
system.cpu0.intRegfileWrites                  5916826                       # Number of integer regfile writes (Count)
system.cpu0.fpRegfileReads                     543464                       # Number of floating regfile reads (Count)
system.cpu0.fpRegfileWrites                    477089                       # Number of floating regfile writes (Count)
system.cpu0.ccRegfileReads                    3282279                       # number of cc regfile reads (Count)
system.cpu0.ccRegfileWrites                   3467619                       # number of cc regfile writes (Count)
system.cpu0.miscRegfileReads                  3829515                       # number of misc regfile reads (Count)
system.cpu0.miscRegfileWrites                     846                       # number of misc regfile writes (Count)
system.cpu0.MemDepUnit__0.insertedLoads       1395397                       # Number of loads inserted to the mem dependence unit. (Count)
system.cpu0.MemDepUnit__0.insertedStores      1348836                       # Number of stores inserted to the mem dependence unit. (Count)
system.cpu0.MemDepUnit__0.conflictingLoads       165859                       # Number of conflicting loads. (Count)
system.cpu0.MemDepUnit__0.conflictingStores        24017                       # Number of conflicting stores. (Count)
system.cpu0.MemDepUnit__1.insertedLoads             0                       # Number of loads inserted to the mem dependence unit. (Count)
system.cpu0.MemDepUnit__1.insertedStores            0                       # Number of stores inserted to the mem dependence unit. (Count)
system.cpu0.MemDepUnit__1.conflictingLoads            0                       # Number of conflicting loads. (Count)
system.cpu0.MemDepUnit__1.conflictingStores            0                       # Number of conflicting stores. (Count)
system.cpu0.MemDepUnit__2.insertedLoads             0                       # Number of loads inserted to the mem dependence unit. (Count)
system.cpu0.MemDepUnit__2.insertedStores            0                       # Number of stores inserted to the mem dependence unit. (Count)
system.cpu0.MemDepUnit__2.conflictingLoads            0                       # Number of conflicting loads. (Count)
system.cpu0.MemDepUnit__2.conflictingStores            0                       # Number of conflicting stores. (Count)
system.cpu0.MemDepUnit__3.insertedLoads             0                       # Number of loads inserted to the mem dependence unit. (Count)
system.cpu0.MemDepUnit__3.insertedStores            0                       # Number of stores inserted to the mem dependence unit. (Count)
system.cpu0.MemDepUnit__3.conflictingLoads            0                       # Number of conflicting loads. (Count)
system.cpu0.MemDepUnit__3.conflictingStores            0                       # Number of conflicting stores. (Count)
system.cpu0.branchPred.lookups                 571736                       # Number of BP lookups (Count)
system.cpu0.branchPred.condPredicted           508017                       # Number of conditional branches predicted (Count)
system.cpu0.branchPred.condIncorrect            19239                       # Number of conditional branches incorrect (Count)
system.cpu0.branchPred.BTBLookups              326600                       # Number of BTB lookups (Count)
system.cpu0.branchPred.BTBUpdates                8710                       # Number of BTB updates (Count)
system.cpu0.branchPred.BTBHits                 322400                       # Number of BTB hits (Count)
system.cpu0.branchPred.BTBHitRatio           0.987140                       # BTB Hit Ratio (Ratio)
system.cpu0.branchPred.RASUsed                  14493                       # Number of times the RAS was used to get a target. (Count)
system.cpu0.branchPred.RASIncorrect                 7                       # Number of incorrect RAS predictions. (Count)
system.cpu0.branchPred.indirectLookups           9992                       # Number of indirect predictor lookups. (Count)
system.cpu0.branchPred.indirectHits              5154                       # Number of indirect target hits. (Count)
system.cpu0.branchPred.indirectMisses            4838                       # Number of indirect misses. (Count)
system.cpu0.branchPred.indirectMispredicted         1244                       # Number of mispredicted indirect branches. (Count)
system.cpu0.commit.commitSquashedInsts        1152247                       # The number of squashed insts skipped by commit (Count)
system.cpu0.commit.commitNonSpecStalls            853                       # The number of times commit has been forced to stall to communicate backwards (Count)
system.cpu0.commit.branchMispredicts            20763                       # The number of times a branch was mispredicted (Count)
system.cpu0.commit.numCommittedDist::samples     11439861                       # Number of insts commited each cycle (Count)
system.cpu0.commit.numCommittedDist::mean     0.683833                       # Number of insts commited each cycle (Count)
system.cpu0.commit.numCommittedDist::stdev     1.735240                       # Number of insts commited each cycle (Count)
system.cpu0.commit.numCommittedDist::underflows            0      0.00%      0.00% # Number of insts commited each cycle (Count)
system.cpu0.commit.numCommittedDist::0        8922901     78.00%     78.00% # Number of insts commited each cycle (Count)
system.cpu0.commit.numCommittedDist::1         941922      8.23%     86.23% # Number of insts commited each cycle (Count)
system.cpu0.commit.numCommittedDist::2         509070      4.45%     90.68% # Number of insts commited each cycle (Count)
system.cpu0.commit.numCommittedDist::3         287490      2.51%     93.20% # Number of insts commited each cycle (Count)
system.cpu0.commit.numCommittedDist::4         140631      1.23%     94.42% # Number of insts commited each cycle (Count)
system.cpu0.commit.numCommittedDist::5         172460      1.51%     95.93% # Number of insts commited each cycle (Count)
system.cpu0.commit.numCommittedDist::6          48077      0.42%     96.35% # Number of insts commited each cycle (Count)
system.cpu0.commit.numCommittedDist::7          51342      0.45%     96.80% # Number of insts commited each cycle (Count)
system.cpu0.commit.numCommittedDist::8         365968      3.20%    100.00% # Number of insts commited each cycle (Count)
system.cpu0.commit.numCommittedDist::overflows            0      0.00%    100.00% # Number of insts commited each cycle (Count)
system.cpu0.commit.numCommittedDist::min_value            0                       # Number of insts commited each cycle (Count)
system.cpu0.commit.numCommittedDist::max_value            8                       # Number of insts commited each cycle (Count)
system.cpu0.commit.numCommittedDist::total     11439861                       # Number of insts commited each cycle (Count)
system.cpu0.commit.instsCommitted             5139143                       # Number of instructions committed (Count)
system.cpu0.commit.opsCommitted               7822956                       # Number of ops (including micro ops) committed (Count)
system.cpu0.commit.memRefs                    2533632                       # Number of memory references committed (Count)
system.cpu0.commit.loads                      1237903                       # Number of loads committed (Count)
system.cpu0.commit.amos                             0                       # Number of atomic instructions committed (Count)
system.cpu0.commit.membars                          2                       # Number of memory barriers committed (Count)
system.cpu0.commit.branches                    413079                       # Number of branches committed (Count)
system.cpu0.commit.vectorInstructions               0                       # Number of committed Vector instructions. (Count)
system.cpu0.commit.floating                    868842                       # Number of committed floating point instructions. (Count)
system.cpu0.commit.integer                    7762285                       # Number of committed integer instructions. (Count)
system.cpu0.commit.functionCalls                10695                       # Number of function calls committed. (Count)
system.cpu0.commit.committedInstType_0::No_OpClass        11879      0.15%      0.15% # Class of committed instruction (Count)
system.cpu0.commit.committedInstType_0::IntAlu      5196139     66.42%     66.57% # Class of committed instruction (Count)
system.cpu0.commit.committedInstType_0::IntMult           29      0.00%     66.57% # Class of committed instruction (Count)
system.cpu0.commit.committedInstType_0::IntDiv        35972      0.46%     67.03% # Class of committed instruction (Count)
system.cpu0.commit.committedInstType_0::FloatAdd         3214      0.04%     67.07% # Class of committed instruction (Count)
system.cpu0.commit.committedInstType_0::FloatCmp            0      0.00%     67.07% # Class of committed instruction (Count)
system.cpu0.commit.committedInstType_0::FloatCvt         1504      0.02%     67.09% # Class of committed instruction (Count)
system.cpu0.commit.committedInstType_0::FloatMult            0      0.00%     67.09% # Class of committed instruction (Count)
system.cpu0.commit.committedInstType_0::FloatMultAcc            0      0.00%     67.09% # Class of committed instruction (Count)
system.cpu0.commit.committedInstType_0::FloatDiv            0      0.00%     67.09% # Class of committed instruction (Count)
system.cpu0.commit.committedInstType_0::FloatMisc            0      0.00%     67.09% # Class of committed instruction (Count)
system.cpu0.commit.committedInstType_0::FloatSqrt            0      0.00%     67.09% # Class of committed instruction (Count)
system.cpu0.commit.committedInstType_0::SimdAdd         6746      0.09%     67.18% # Class of committed instruction (Count)
system.cpu0.commit.committedInstType_0::SimdAddAcc            0      0.00%     67.18% # Class of committed instruction (Count)
system.cpu0.commit.committedInstType_0::SimdAlu        12083      0.15%     67.33% # Class of committed instruction (Count)
system.cpu0.commit.committedInstType_0::SimdCmp            0      0.00%     67.33% # Class of committed instruction (Count)
system.cpu0.commit.committedInstType_0::SimdCvt        13188      0.17%     67.50% # Class of committed instruction (Count)
system.cpu0.commit.committedInstType_0::SimdMisc         7204      0.09%     67.60% # Class of committed instruction (Count)
system.cpu0.commit.committedInstType_0::SimdMult            0      0.00%     67.60% # Class of committed instruction (Count)
system.cpu0.commit.committedInstType_0::SimdMultAcc            0      0.00%     67.60% # Class of committed instruction (Count)
system.cpu0.commit.committedInstType_0::SimdShift         1366      0.02%     67.61% # Class of committed instruction (Count)
system.cpu0.commit.committedInstType_0::SimdShiftAcc            0      0.00%     67.61% # Class of committed instruction (Count)
system.cpu0.commit.committedInstType_0::SimdDiv            0      0.00%     67.61% # Class of committed instruction (Count)
system.cpu0.commit.committedInstType_0::SimdSqrt            0      0.00%     67.61% # Class of committed instruction (Count)
system.cpu0.commit.committedInstType_0::SimdFloatAdd            0      0.00%     67.61% # Class of committed instruction (Count)
system.cpu0.commit.committedInstType_0::SimdFloatAlu            0      0.00%     67.61% # Class of committed instruction (Count)
system.cpu0.commit.committedInstType_0::SimdFloatCmp            0      0.00%     67.61% # Class of committed instruction (Count)
system.cpu0.commit.committedInstType_0::SimdFloatCvt            0      0.00%     67.61% # Class of committed instruction (Count)
system.cpu0.commit.committedInstType_0::SimdFloatDiv            0      0.00%     67.61% # Class of committed instruction (Count)
system.cpu0.commit.committedInstType_0::SimdFloatMisc            0      0.00%     67.61% # Class of committed instruction (Count)
system.cpu0.commit.committedInstType_0::SimdFloatMult            0      0.00%     67.61% # Class of committed instruction (Count)
system.cpu0.commit.committedInstType_0::SimdFloatMultAcc            0      0.00%     67.61% # Class of committed instruction (Count)
system.cpu0.commit.committedInstType_0::SimdFloatSqrt            0      0.00%     67.61% # Class of committed instruction (Count)
system.cpu0.commit.committedInstType_0::SimdReduceAdd            0      0.00%     67.61% # Class of committed instruction (Count)
system.cpu0.commit.committedInstType_0::SimdReduceAlu            0      0.00%     67.61% # Class of committed instruction (Count)
system.cpu0.commit.committedInstType_0::SimdReduceCmp            0      0.00%     67.61% # Class of committed instruction (Count)
system.cpu0.commit.committedInstType_0::SimdFloatReduceAdd            0      0.00%     67.61% # Class of committed instruction (Count)
system.cpu0.commit.committedInstType_0::SimdFloatReduceCmp            0      0.00%     67.61% # Class of committed instruction (Count)
system.cpu0.commit.committedInstType_0::SimdAes            0      0.00%     67.61% # Class of committed instruction (Count)
system.cpu0.commit.committedInstType_0::SimdAesMix            0      0.00%     67.61% # Class of committed instruction (Count)
system.cpu0.commit.committedInstType_0::SimdSha1Hash            0      0.00%     67.61% # Class of committed instruction (Count)
system.cpu0.commit.committedInstType_0::SimdSha1Hash2            0      0.00%     67.61% # Class of committed instruction (Count)
system.cpu0.commit.committedInstType_0::SimdSha256Hash            0      0.00%     67.61% # Class of committed instruction (Count)
system.cpu0.commit.committedInstType_0::SimdSha256Hash2            0      0.00%     67.61% # Class of committed instruction (Count)
system.cpu0.commit.committedInstType_0::SimdShaSigma2            0      0.00%     67.61% # Class of committed instruction (Count)
system.cpu0.commit.committedInstType_0::SimdShaSigma3            0      0.00%     67.61% # Class of committed instruction (Count)
system.cpu0.commit.committedInstType_0::SimdPredAlu            0      0.00%     67.61% # Class of committed instruction (Count)
system.cpu0.commit.committedInstType_0::MemRead       822974     10.52%     78.13% # Class of committed instruction (Count)
system.cpu0.commit.committedInstType_0::MemWrite       888033     11.35%     89.48% # Class of committed instruction (Count)
system.cpu0.commit.committedInstType_0::FloatMemRead       414929      5.30%     94.79% # Class of committed instruction (Count)
system.cpu0.commit.committedInstType_0::FloatMemWrite       407696      5.21%    100.00% # Class of committed instruction (Count)
system.cpu0.commit.committedInstType_0::IprAccess            0      0.00%    100.00% # Class of committed instruction (Count)
system.cpu0.commit.committedInstType_0::InstPrefetch            0      0.00%    100.00% # Class of committed instruction (Count)
system.cpu0.commit.committedInstType_0::total      7822956                       # Class of committed instruction (Count)
system.cpu0.commit.commitEligibleSamples       365968                       # number cycles where commit BW limit reached (Cycle)
system.cpu0.decode.idleCycles                  605392                       # Number of cycles decode is idle (Cycle)
system.cpu0.decode.blockedCycles              9699292                       # Number of cycles decode is blocked (Cycle)
system.cpu0.decode.runCycles                   791675                       # Number of cycles decode is running (Cycle)
system.cpu0.decode.unblockCycles               486544                       # Number of cycles decode is unblocking (Cycle)
system.cpu0.decode.squashCycles                 23552                       # Number of cycles decode is squashing (Cycle)
system.cpu0.decode.branchResolved              307485                       # Number of times decode resolved a branch (Count)
system.cpu0.decode.branchMispred                 1249                       # Number of times decode detected a branch misprediction (Count)
system.cpu0.decode.decodedInsts               9232241                       # Number of instructions handled by decode (Count)
system.cpu0.decode.squashedInsts                 5912                       # Number of squashed instructions handled by decode (Count)
system.cpu0.fetch.icacheStallCycles            824186                       # Number of cycles fetch is stalled on an Icache miss (Cycle)
system.cpu0.fetch.insts                       6118991                       # Number of instructions fetch has processed (Count)
system.cpu0.fetch.branches                     571736                       # Number of branches that fetch encountered (Count)
system.cpu0.fetch.predictedBranches            342047                       # Number of branches that fetch has predicted taken (Count)
system.cpu0.fetch.cycles                     10510392                       # Number of cycles fetch has run and was not squashing or blocked (Cycle)
system.cpu0.fetch.squashCycles                  49544                       # Number of cycles fetch has spent squashing (Cycle)
system.cpu0.fetch.miscStallCycles               13602                       # Number of cycles fetch has spent waiting on interrupts, or bad addresses, or out of MSHRs (Cycle)
system.cpu0.fetch.pendingTrapStallCycles        18124                       # Number of stall cycles due to pending traps (Cycle)
system.cpu0.fetch.icacheWaitRetryStallCycles       215379                       # Number of stall cycles due to full MSHR (Cycle)
system.cpu0.fetch.cacheLines                   613302                       # Number of cache lines fetched (Count)
system.cpu0.fetch.icacheSquashes                 4820                       # Number of outstanding Icache misses that were squashed (Count)
system.cpu0.fetch.nisnDist::samples          11606455                       # Number of instructions fetched each cycle (Total) (Count)
system.cpu0.fetch.nisnDist::mean             0.824590                       # Number of instructions fetched each cycle (Total) (Count)
system.cpu0.fetch.nisnDist::stdev            2.230156                       # Number of instructions fetched each cycle (Total) (Count)
system.cpu0.fetch.nisnDist::underflows              0      0.00%      0.00% # Number of instructions fetched each cycle (Total) (Count)
system.cpu0.fetch.nisnDist::0                 9963531     85.84%     85.84% # Number of instructions fetched each cycle (Total) (Count)
system.cpu0.fetch.nisnDist::1                   60968      0.53%     86.37% # Number of instructions fetched each cycle (Total) (Count)
system.cpu0.fetch.nisnDist::2                  169683      1.46%     87.83% # Number of instructions fetched each cycle (Total) (Count)
system.cpu0.fetch.nisnDist::3                  170303      1.47%     89.30% # Number of instructions fetched each cycle (Total) (Count)
system.cpu0.fetch.nisnDist::4                  174472      1.50%     90.80% # Number of instructions fetched each cycle (Total) (Count)
system.cpu0.fetch.nisnDist::5                  127466      1.10%     91.90% # Number of instructions fetched each cycle (Total) (Count)
system.cpu0.fetch.nisnDist::6                   73617      0.63%     92.54% # Number of instructions fetched each cycle (Total) (Count)
system.cpu0.fetch.nisnDist::7                   48919      0.42%     92.96% # Number of instructions fetched each cycle (Total) (Count)
system.cpu0.fetch.nisnDist::8                  817496      7.04%    100.00% # Number of instructions fetched each cycle (Total) (Count)
system.cpu0.fetch.nisnDist::overflows               0      0.00%    100.00% # Number of instructions fetched each cycle (Total) (Count)
system.cpu0.fetch.nisnDist::min_value               0                       # Number of instructions fetched each cycle (Total) (Count)
system.cpu0.fetch.nisnDist::max_value               8                       # Number of instructions fetched each cycle (Total) (Count)
system.cpu0.fetch.nisnDist::total            11606455                       # Number of instructions fetched each cycle (Total) (Count)
system.cpu0.fetch.branchRate                 0.044479                       # Number of branch fetches per cycle (Ratio)
system.cpu0.fetch.rate                       0.476031                       # Number of inst fetches per cycle ((Count/Cycle))
system.cpu0.iew.idleCycles                          0                       # Number of cycles IEW is idle (Cycle)
system.cpu0.iew.squashCycles                    23552                       # Number of cycles IEW is squashing (Cycle)
system.cpu0.iew.blockCycles                   5389357                       # Number of cycles IEW is blocking (Cycle)
system.cpu0.iew.unblockCycles                  164664                       # Number of cycles IEW is unblocking (Cycle)
system.cpu0.iew.dispatchedInsts               8984005                       # Number of instructions dispatched to IQ (Count)
system.cpu0.iew.dispSquashedInsts                1159                       # Number of squashed instructions skipped by dispatch (Count)
system.cpu0.iew.dispLoadInsts                 1395397                       # Number of dispatched load instructions (Count)
system.cpu0.iew.dispStoreInsts                1348836                       # Number of dispatched store instructions (Count)
system.cpu0.iew.dispNonSpecInsts                  899                       # Number of dispatched non-speculative instructions (Count)
system.cpu0.iew.iqFullEvents                     7384                       # Number of times the IQ has become full, causing a stall (Count)
system.cpu0.iew.lsqFullEvents                  152101                       # Number of times the LSQ has become full, causing a stall (Count)
system.cpu0.iew.memOrderViolationEvents          2224                       # Number of memory order violations (Count)
system.cpu0.iew.predictedTakenIncorrect          9912                       # Number of branches that were predicted taken incorrectly (Count)
system.cpu0.iew.predictedNotTakenIncorrect        13040                       # Number of branches that were predicted not taken incorrectly (Count)
system.cpu0.iew.branchMispredicts               22952                       # Number of branch mispredicts detected at execute (Count)
system.cpu0.iew.instsToCommit                 8499281                       # Cumulative count of insts sent to commit (Count)
system.cpu0.iew.writebackCount                8484921                       # Cumulative count of insts written-back (Count)
system.cpu0.iew.producerInst                  5495001                       # Number of instructions producing a value (Count)
system.cpu0.iew.consumerInst                 10387399                       # Number of instructions consuming a value (Count)
system.cpu0.iew.wbRate                       0.660090                       # Insts written-back per cycle ((Count/Cycle))
system.cpu0.iew.wbFanout                     0.529006                       # Average fanout of values written-back ((Count/Count))
system.cpu0.interrupts.clk_domain.clock          8000                       # Clock period in ticks (Tick)
system.cpu0.lsq0.forwLoads                     208732                       # Number of loads that had data forwarded from stores (Count)
system.cpu0.lsq0.squashedLoads                 157494                       # Number of loads squashed (Count)
system.cpu0.lsq0.ignoredResponses                  91                       # Number of memory responses ignored because the instruction is squashed (Count)
system.cpu0.lsq0.memOrderViolation               2224                       # Number of memory ordering violations (Count)
system.cpu0.lsq0.squashedStores                 53107                       # Number of stores squashed (Count)
system.cpu0.lsq0.rescheduledLoads                3104                       # Number of loads that were rescheduled (Count)
system.cpu0.lsq0.blockedByCache                  2100                       # Number of times an access to memory failed due to the cache being blocked (Count)
system.cpu0.lsq0.loadToUse::samples           1237825                       # Distribution of cycle latency between the first time a load is issued and its completion (Unspecified)
system.cpu0.lsq0.loadToUse::mean            29.810846                       # Distribution of cycle latency between the first time a load is issued and its completion (Unspecified)
system.cpu0.lsq0.loadToUse::stdev          149.511121                       # Distribution of cycle latency between the first time a load is issued and its completion (Unspecified)
system.cpu0.lsq0.loadToUse::0-9               1190367     96.17%     96.17% # Distribution of cycle latency between the first time a load is issued and its completion (Unspecified)
system.cpu0.lsq0.loadToUse::10-19                  62      0.01%     96.17% # Distribution of cycle latency between the first time a load is issued and its completion (Unspecified)
system.cpu0.lsq0.loadToUse::20-29                  78      0.01%     96.18% # Distribution of cycle latency between the first time a load is issued and its completion (Unspecified)
system.cpu0.lsq0.loadToUse::30-39                  84      0.01%     96.18% # Distribution of cycle latency between the first time a load is issued and its completion (Unspecified)
system.cpu0.lsq0.loadToUse::40-49                2139      0.17%     96.36% # Distribution of cycle latency between the first time a load is issued and its completion (Unspecified)
system.cpu0.lsq0.loadToUse::50-59                  89      0.01%     96.36% # Distribution of cycle latency between the first time a load is issued and its completion (Unspecified)
system.cpu0.lsq0.loadToUse::60-69                 100      0.01%     96.37% # Distribution of cycle latency between the first time a load is issued and its completion (Unspecified)
system.cpu0.lsq0.loadToUse::70-79                  51      0.00%     96.38% # Distribution of cycle latency between the first time a load is issued and its completion (Unspecified)
system.cpu0.lsq0.loadToUse::80-89                  34      0.00%     96.38% # Distribution of cycle latency between the first time a load is issued and its completion (Unspecified)
system.cpu0.lsq0.loadToUse::90-99                  48      0.00%     96.38% # Distribution of cycle latency between the first time a load is issued and its completion (Unspecified)
system.cpu0.lsq0.loadToUse::100-109                69      0.01%     96.39% # Distribution of cycle latency between the first time a load is issued and its completion (Unspecified)
system.cpu0.lsq0.loadToUse::110-119                47      0.00%     96.39% # Distribution of cycle latency between the first time a load is issued and its completion (Unspecified)
system.cpu0.lsq0.loadToUse::120-129                50      0.00%     96.40% # Distribution of cycle latency between the first time a load is issued and its completion (Unspecified)
system.cpu0.lsq0.loadToUse::130-139                51      0.00%     96.40% # Distribution of cycle latency between the first time a load is issued and its completion (Unspecified)
system.cpu0.lsq0.loadToUse::140-149                49      0.00%     96.40% # Distribution of cycle latency between the first time a load is issued and its completion (Unspecified)
system.cpu0.lsq0.loadToUse::150-159                60      0.00%     96.41% # Distribution of cycle latency between the first time a load is issued and its completion (Unspecified)
system.cpu0.lsq0.loadToUse::160-169                52      0.00%     96.41% # Distribution of cycle latency between the first time a load is issued and its completion (Unspecified)
system.cpu0.lsq0.loadToUse::170-179               145      0.01%     96.43% # Distribution of cycle latency between the first time a load is issued and its completion (Unspecified)
system.cpu0.lsq0.loadToUse::180-189               609      0.05%     96.47% # Distribution of cycle latency between the first time a load is issued and its completion (Unspecified)
system.cpu0.lsq0.loadToUse::190-199                36      0.00%     96.48% # Distribution of cycle latency between the first time a load is issued and its completion (Unspecified)
system.cpu0.lsq0.loadToUse::200-209                43      0.00%     96.48% # Distribution of cycle latency between the first time a load is issued and its completion (Unspecified)
system.cpu0.lsq0.loadToUse::210-219                54      0.00%     96.49% # Distribution of cycle latency between the first time a load is issued and its completion (Unspecified)
system.cpu0.lsq0.loadToUse::220-229                67      0.01%     96.49% # Distribution of cycle latency between the first time a load is issued and its completion (Unspecified)
system.cpu0.lsq0.loadToUse::230-239               102      0.01%     96.50% # Distribution of cycle latency between the first time a load is issued and its completion (Unspecified)
system.cpu0.lsq0.loadToUse::240-249               524      0.04%     96.54% # Distribution of cycle latency between the first time a load is issued and its completion (Unspecified)
system.cpu0.lsq0.loadToUse::250-259                39      0.00%     96.54% # Distribution of cycle latency between the first time a load is issued and its completion (Unspecified)
system.cpu0.lsq0.loadToUse::260-269                38      0.00%     96.55% # Distribution of cycle latency between the first time a load is issued and its completion (Unspecified)
system.cpu0.lsq0.loadToUse::270-279                36      0.00%     96.55% # Distribution of cycle latency between the first time a load is issued and its completion (Unspecified)
system.cpu0.lsq0.loadToUse::280-289               100      0.01%     96.56% # Distribution of cycle latency between the first time a load is issued and its completion (Unspecified)
system.cpu0.lsq0.loadToUse::290-299               158      0.01%     96.57% # Distribution of cycle latency between the first time a load is issued and its completion (Unspecified)
system.cpu0.lsq0.loadToUse::overflows           42444      3.43%    100.00% # Distribution of cycle latency between the first time a load is issued and its completion (Unspecified)
system.cpu0.lsq0.loadToUse::min_value               2                       # Distribution of cycle latency between the first time a load is issued and its completion (Unspecified)
system.cpu0.lsq0.loadToUse::max_value            2417                       # Distribution of cycle latency between the first time a load is issued and its completion (Unspecified)
system.cpu0.lsq0.loadToUse::total             1237825                       # Distribution of cycle latency between the first time a load is issued and its completion (Unspecified)
system.cpu0.mmu.dtb.rdAccesses                1353898                       # TLB accesses on read requests (Count)
system.cpu0.mmu.dtb.wrAccesses                1323856                       # TLB accesses on write requests (Count)
system.cpu0.mmu.dtb.rdMisses                     3281                       # TLB misses on read requests (Count)
system.cpu0.mmu.dtb.wrMisses                      451                       # TLB misses on write requests (Count)
system.cpu0.mmu.dtb.walker.power_state.pwrStateResidencyTicks::UNDEFINED   6492172000                       # Cumulative time (in ticks) in various power states (Tick)
system.cpu0.mmu.itb.rdAccesses                      0                       # TLB accesses on read requests (Count)
system.cpu0.mmu.itb.wrAccesses                 616136                       # TLB accesses on write requests (Count)
system.cpu0.mmu.itb.rdMisses                        0                       # TLB misses on read requests (Count)
system.cpu0.mmu.itb.wrMisses                     3453                       # TLB misses on write requests (Count)
system.cpu0.mmu.itb.walker.power_state.pwrStateResidencyTicks::UNDEFINED   6492172000                       # Cumulative time (in ticks) in various power states (Tick)
system.cpu0.power_state.pwrStateResidencyTicks::ON   6492172000                       # Cumulative time (in ticks) in various power states (Tick)
system.cpu0.rename.squashCycles                 23552                       # Number of cycles rename is squashing (Cycle)
system.cpu0.rename.idleCycles                  810070                       # Number of cycles rename is idle (Cycle)
system.cpu0.rename.blockCycles                7138486                       # Number of cycles rename is blocking (Cycle)
system.cpu0.rename.serializeStallCycles         23037                       # count of cycles rename stalled for serializing inst (Cycle)
system.cpu0.rename.runCycles                  1064213                       # Number of cycles rename is running (Cycle)
system.cpu0.rename.unblockCycles              2547097                       # Number of cycles rename is unblocking (Cycle)
system.cpu0.rename.renamedInsts               9133162                       # Number of instructions processed by rename (Count)
system.cpu0.rename.ROBFullEvents               110622                       # Number of times rename has blocked due to ROB full (Count)
system.cpu0.rename.IQFullEvents                245361                       # Number of times rename has blocked due to IQ full (Count)
system.cpu0.rename.LQFullEvents                160901                       # Number of times rename has blocked due to LQ full (Count)
system.cpu0.rename.SQFullEvents               2027706                       # Number of times rename has blocked due to SQ full (Count)
system.cpu0.rename.fullRegistersEvents           3115                       # Number of times there has been no free registers (Count)
system.cpu0.rename.renamedOperands           17341016                       # Number of destination operands rename has renamed (Count)
system.cpu0.rename.lookups                   33168426                       # Number of register rename lookups that rename has made (Count)
system.cpu0.rename.intLookups                12916313                       # Number of integer rename lookups (Count)
system.cpu0.rename.fpLookups                   588982                       # Number of floating rename lookups (Count)
system.cpu0.rename.committedMaps             14759308                       # Number of HB maps that are committed (Count)
system.cpu0.rename.undoneMaps                 2581708                       # Number of HB maps that are undone due to squashing (Count)
system.cpu0.rename.serializing                    874                       # count of serializing insts renamed (Count)
system.cpu0.rename.tempSerializing                859                       # count of temporary serializing insts renamed (Count)
system.cpu0.rename.skidInsts                  2765984                       # count of insts added to the skid buffer (Count)
system.cpu0.rob.reads                        20041387                       # The number of ROB reads (Count)
system.cpu0.rob.writes                       18117246                       # The number of ROB writes (Count)
system.cpu0.thread_0.numInsts                 5139143                       # Number of Instructions committed (Count)
system.cpu0.thread_0.numOps                   7822956                       # Number of Ops committed (Count)
system.cpu0.thread_0.numMemRefs                     0                       # Number of Memory References (Count)
system.cpu0.workload.numSyscalls                   63                       # Number of system calls (Count)
system.cpu1.numCycles                        12494317                       # Number of cpu cycles simulated (Cycle)
system.cpu1.numWorkItemsStarted                     0                       # Number of work items this cpu started (Count)
system.cpu1.numWorkItemsCompleted                   0                       # Number of work items this cpu completed (Count)
system.cpu1.instsAdded                        8987082                       # Number of instructions added to the IQ (excludes non-spec) (Count)
system.cpu1.nonSpecInstsAdded                    1080                       # Number of non-speculative instructions added to the IQ (Count)
system.cpu1.instsIssued                       8564817                       # Number of instructions issued (Count)
system.cpu1.squashedInstsIssued                  2948                       # Number of squashed instructions issued (Count)
system.cpu1.squashedInstsExamined             1165206                       # Number of squashed instructions iterated over during squash; mainly for profiling (Count)
system.cpu1.squashedOperandsExamined          2498587                       # Number of squashed operands that are examined and possibly removed from graph (Count)
system.cpu1.squashedNonSpecRemoved                227                       # Number of squashed non-spec instructions that were removed (Count)
system.cpu1.numIssuedDist::samples           11319270                       # Number of insts issued each cycle (Count)
system.cpu1.numIssuedDist::mean              0.756658                       # Number of insts issued each cycle (Count)
system.cpu1.numIssuedDist::stdev             1.567732                       # Number of insts issued each cycle (Count)
system.cpu1.numIssuedDist::underflows               0      0.00%      0.00% # Number of insts issued each cycle (Count)
system.cpu1.numIssuedDist::0                  8406363     74.27%     74.27% # Number of insts issued each cycle (Count)
system.cpu1.numIssuedDist::1                   681161      6.02%     80.28% # Number of insts issued each cycle (Count)
system.cpu1.numIssuedDist::2                   825283      7.29%     87.57% # Number of insts issued each cycle (Count)
system.cpu1.numIssuedDist::3                   458249      4.05%     91.62% # Number of insts issued each cycle (Count)
system.cpu1.numIssuedDist::4                   364828      3.22%     94.85% # Number of insts issued each cycle (Count)
system.cpu1.numIssuedDist::5                   291546      2.58%     97.42% # Number of insts issued each cycle (Count)
system.cpu1.numIssuedDist::6                   146031      1.29%     98.71% # Number of insts issued each cycle (Count)
system.cpu1.numIssuedDist::7                   101357      0.90%     99.61% # Number of insts issued each cycle (Count)
system.cpu1.numIssuedDist::8                    44452      0.39%    100.00% # Number of insts issued each cycle (Count)
system.cpu1.numIssuedDist::overflows                0      0.00%    100.00% # Number of insts issued each cycle (Count)
system.cpu1.numIssuedDist::min_value                0                       # Number of insts issued each cycle (Count)
system.cpu1.numIssuedDist::max_value                8                       # Number of insts issued each cycle (Count)
system.cpu1.numIssuedDist::total             11319270                       # Number of insts issued each cycle (Count)
system.cpu1.statFuBusy::No_OpClass                  0      0.00%      0.00% # attempts to use FU when none available (Count)
system.cpu1.statFuBusy::IntAlu                  42090     42.09%     42.09% # attempts to use FU when none available (Count)
system.cpu1.statFuBusy::IntMult                     0      0.00%     42.09% # attempts to use FU when none available (Count)
system.cpu1.statFuBusy::IntDiv                      0      0.00%     42.09% # attempts to use FU when none available (Count)
system.cpu1.statFuBusy::FloatAdd                    0      0.00%     42.09% # attempts to use FU when none available (Count)
system.cpu1.statFuBusy::FloatCmp                    0      0.00%     42.09% # attempts to use FU when none available (Count)
system.cpu1.statFuBusy::FloatCvt                    1      0.00%     42.09% # attempts to use FU when none available (Count)
system.cpu1.statFuBusy::FloatMult                   0      0.00%     42.09% # attempts to use FU when none available (Count)
system.cpu1.statFuBusy::FloatMultAcc                0      0.00%     42.09% # attempts to use FU when none available (Count)
system.cpu1.statFuBusy::FloatDiv                    0      0.00%     42.09% # attempts to use FU when none available (Count)
system.cpu1.statFuBusy::FloatMisc                   0      0.00%     42.09% # attempts to use FU when none available (Count)
system.cpu1.statFuBusy::FloatSqrt                   0      0.00%     42.09% # attempts to use FU when none available (Count)
system.cpu1.statFuBusy::SimdAdd                     0      0.00%     42.09% # attempts to use FU when none available (Count)
system.cpu1.statFuBusy::SimdAddAcc                  0      0.00%     42.09% # attempts to use FU when none available (Count)
system.cpu1.statFuBusy::SimdAlu                   119      0.12%     42.21% # attempts to use FU when none available (Count)
system.cpu1.statFuBusy::SimdCmp                     0      0.00%     42.21% # attempts to use FU when none available (Count)
system.cpu1.statFuBusy::SimdCvt                   144      0.14%     42.36% # attempts to use FU when none available (Count)
system.cpu1.statFuBusy::SimdMisc                    0      0.00%     42.36% # attempts to use FU when none available (Count)
system.cpu1.statFuBusy::SimdMult                    0      0.00%     42.36% # attempts to use FU when none available (Count)
system.cpu1.statFuBusy::SimdMultAcc                 0      0.00%     42.36% # attempts to use FU when none available (Count)
system.cpu1.statFuBusy::SimdShift                 148      0.15%     42.50% # attempts to use FU when none available (Count)
system.cpu1.statFuBusy::SimdShiftAcc                0      0.00%     42.50% # attempts to use FU when none available (Count)
system.cpu1.statFuBusy::SimdDiv                     0      0.00%     42.50% # attempts to use FU when none available (Count)
system.cpu1.statFuBusy::SimdSqrt                    0      0.00%     42.50% # attempts to use FU when none available (Count)
system.cpu1.statFuBusy::SimdFloatAdd                0      0.00%     42.50% # attempts to use FU when none available (Count)
system.cpu1.statFuBusy::SimdFloatAlu                0      0.00%     42.50% # attempts to use FU when none available (Count)
system.cpu1.statFuBusy::SimdFloatCmp                0      0.00%     42.50% # attempts to use FU when none available (Count)
system.cpu1.statFuBusy::SimdFloatCvt                0      0.00%     42.50% # attempts to use FU when none available (Count)
system.cpu1.statFuBusy::SimdFloatDiv                0      0.00%     42.50% # attempts to use FU when none available (Count)
system.cpu1.statFuBusy::SimdFloatMisc               0      0.00%     42.50% # attempts to use FU when none available (Count)
system.cpu1.statFuBusy::SimdFloatMult               0      0.00%     42.50% # attempts to use FU when none available (Count)
system.cpu1.statFuBusy::SimdFloatMultAcc            0      0.00%     42.50% # attempts to use FU when none available (Count)
system.cpu1.statFuBusy::SimdFloatSqrt               0      0.00%     42.50% # attempts to use FU when none available (Count)
system.cpu1.statFuBusy::SimdReduceAdd               0      0.00%     42.50% # attempts to use FU when none available (Count)
system.cpu1.statFuBusy::SimdReduceAlu               0      0.00%     42.50% # attempts to use FU when none available (Count)
system.cpu1.statFuBusy::SimdReduceCmp               0      0.00%     42.50% # attempts to use FU when none available (Count)
system.cpu1.statFuBusy::SimdFloatReduceAdd            0      0.00%     42.50% # attempts to use FU when none available (Count)
system.cpu1.statFuBusy::SimdFloatReduceCmp            0      0.00%     42.50% # attempts to use FU when none available (Count)
system.cpu1.statFuBusy::SimdAes                     0      0.00%     42.50% # attempts to use FU when none available (Count)
system.cpu1.statFuBusy::SimdAesMix                  0      0.00%     42.50% # attempts to use FU when none available (Count)
system.cpu1.statFuBusy::SimdSha1Hash                0      0.00%     42.50% # attempts to use FU when none available (Count)
system.cpu1.statFuBusy::SimdSha1Hash2               0      0.00%     42.50% # attempts to use FU when none available (Count)
system.cpu1.statFuBusy::SimdSha256Hash              0      0.00%     42.50% # attempts to use FU when none available (Count)
system.cpu1.statFuBusy::SimdSha256Hash2             0      0.00%     42.50% # attempts to use FU when none available (Count)
system.cpu1.statFuBusy::SimdShaSigma2               0      0.00%     42.50% # attempts to use FU when none available (Count)
system.cpu1.statFuBusy::SimdShaSigma3               0      0.00%     42.50% # attempts to use FU when none available (Count)
system.cpu1.statFuBusy::SimdPredAlu                 0      0.00%     42.50% # attempts to use FU when none available (Count)
system.cpu1.statFuBusy::MemRead                 13298     13.30%     55.80% # attempts to use FU when none available (Count)
system.cpu1.statFuBusy::MemWrite                11053     11.05%     66.86% # attempts to use FU when none available (Count)
system.cpu1.statFuBusy::FloatMemRead             7466      7.47%     74.32% # attempts to use FU when none available (Count)
system.cpu1.statFuBusy::FloatMemWrite           25675     25.68%    100.00% # attempts to use FU when none available (Count)
system.cpu1.statFuBusy::IprAccess                   0      0.00%    100.00% # attempts to use FU when none available (Count)
system.cpu1.statFuBusy::InstPrefetch                0      0.00%    100.00% # attempts to use FU when none available (Count)
system.cpu1.statIssuedInstType_0::No_OpClass        19285      0.23%      0.23% # Number of instructions issued per FU type, per thread (Count)
system.cpu1.statIssuedInstType_0::IntAlu      5747285     67.10%     67.33% # Number of instructions issued per FU type, per thread (Count)
system.cpu1.statIssuedInstType_0::IntMult           38      0.00%     67.33% # Number of instructions issued per FU type, per thread (Count)
system.cpu1.statIssuedInstType_0::IntDiv        38321      0.45%     67.78% # Number of instructions issued per FU type, per thread (Count)
system.cpu1.statIssuedInstType_0::FloatAdd         4368      0.05%     67.83% # Number of instructions issued per FU type, per thread (Count)
system.cpu1.statIssuedInstType_0::FloatCmp            0      0.00%     67.83% # Number of instructions issued per FU type, per thread (Count)
system.cpu1.statIssuedInstType_0::FloatCvt         1662      0.02%     67.85% # Number of instructions issued per FU type, per thread (Count)
system.cpu1.statIssuedInstType_0::FloatMult            0      0.00%     67.85% # Number of instructions issued per FU type, per thread (Count)
system.cpu1.statIssuedInstType_0::FloatMultAcc            0      0.00%     67.85% # Number of instructions issued per FU type, per thread (Count)
system.cpu1.statIssuedInstType_0::FloatDiv            0      0.00%     67.85% # Number of instructions issued per FU type, per thread (Count)
system.cpu1.statIssuedInstType_0::FloatMisc            0      0.00%     67.85% # Number of instructions issued per FU type, per thread (Count)
system.cpu1.statIssuedInstType_0::FloatSqrt            0      0.00%     67.85% # Number of instructions issued per FU type, per thread (Count)
system.cpu1.statIssuedInstType_0::SimdAdd         8374      0.10%     67.94% # Number of instructions issued per FU type, per thread (Count)
system.cpu1.statIssuedInstType_0::SimdAddAcc            0      0.00%     67.94% # Number of instructions issued per FU type, per thread (Count)
system.cpu1.statIssuedInstType_0::SimdAlu        16995      0.20%     68.14% # Number of instructions issued per FU type, per thread (Count)
system.cpu1.statIssuedInstType_0::SimdCmp            0      0.00%     68.14% # Number of instructions issued per FU type, per thread (Count)
system.cpu1.statIssuedInstType_0::SimdCvt        18689      0.22%     68.36% # Number of instructions issued per FU type, per thread (Count)
system.cpu1.statIssuedInstType_0::SimdMisc         8835      0.10%     68.46% # Number of instructions issued per FU type, per thread (Count)
system.cpu1.statIssuedInstType_0::SimdMult            0      0.00%     68.46% # Number of instructions issued per FU type, per thread (Count)
system.cpu1.statIssuedInstType_0::SimdMultAcc            0      0.00%     68.46% # Number of instructions issued per FU type, per thread (Count)
system.cpu1.statIssuedInstType_0::SimdShift         2587      0.03%     68.49% # Number of instructions issued per FU type, per thread (Count)
system.cpu1.statIssuedInstType_0::SimdShiftAcc            0      0.00%     68.49% # Number of instructions issued per FU type, per thread (Count)
system.cpu1.statIssuedInstType_0::SimdDiv            0      0.00%     68.49% # Number of instructions issued per FU type, per thread (Count)
system.cpu1.statIssuedInstType_0::SimdSqrt            0      0.00%     68.49% # Number of instructions issued per FU type, per thread (Count)
system.cpu1.statIssuedInstType_0::SimdFloatAdd            0      0.00%     68.49% # Number of instructions issued per FU type, per thread (Count)
system.cpu1.statIssuedInstType_0::SimdFloatAlu            0      0.00%     68.49% # Number of instructions issued per FU type, per thread (Count)
system.cpu1.statIssuedInstType_0::SimdFloatCmp            0      0.00%     68.49% # Number of instructions issued per FU type, per thread (Count)
system.cpu1.statIssuedInstType_0::SimdFloatCvt            0      0.00%     68.49% # Number of instructions issued per FU type, per thread (Count)
system.cpu1.statIssuedInstType_0::SimdFloatDiv            0      0.00%     68.49% # Number of instructions issued per FU type, per thread (Count)
system.cpu1.statIssuedInstType_0::SimdFloatMisc            0      0.00%     68.49% # Number of instructions issued per FU type, per thread (Count)
system.cpu1.statIssuedInstType_0::SimdFloatMult            0      0.00%     68.49% # Number of instructions issued per FU type, per thread (Count)
system.cpu1.statIssuedInstType_0::SimdFloatMultAcc            0      0.00%     68.49% # Number of instructions issued per FU type, per thread (Count)
system.cpu1.statIssuedInstType_0::SimdFloatSqrt            0      0.00%     68.49% # Number of instructions issued per FU type, per thread (Count)
system.cpu1.statIssuedInstType_0::SimdReduceAdd            0      0.00%     68.49% # Number of instructions issued per FU type, per thread (Count)
system.cpu1.statIssuedInstType_0::SimdReduceAlu            0      0.00%     68.49% # Number of instructions issued per FU type, per thread (Count)
system.cpu1.statIssuedInstType_0::SimdReduceCmp            0      0.00%     68.49% # Number of instructions issued per FU type, per thread (Count)
system.cpu1.statIssuedInstType_0::SimdFloatReduceAdd            0      0.00%     68.49% # Number of instructions issued per FU type, per thread (Count)
system.cpu1.statIssuedInstType_0::SimdFloatReduceCmp            0      0.00%     68.49% # Number of instructions issued per FU type, per thread (Count)
system.cpu1.statIssuedInstType_0::SimdAes            0      0.00%     68.49% # Number of instructions issued per FU type, per thread (Count)
system.cpu1.statIssuedInstType_0::SimdAesMix            0      0.00%     68.49% # Number of instructions issued per FU type, per thread (Count)
system.cpu1.statIssuedInstType_0::SimdSha1Hash            0      0.00%     68.49% # Number of instructions issued per FU type, per thread (Count)
system.cpu1.statIssuedInstType_0::SimdSha1Hash2            0      0.00%     68.49% # Number of instructions issued per FU type, per thread (Count)
system.cpu1.statIssuedInstType_0::SimdSha256Hash            0      0.00%     68.49% # Number of instructions issued per FU type, per thread (Count)
system.cpu1.statIssuedInstType_0::SimdSha256Hash2            0      0.00%     68.49% # Number of instructions issued per FU type, per thread (Count)
system.cpu1.statIssuedInstType_0::SimdShaSigma2            0      0.00%     68.49% # Number of instructions issued per FU type, per thread (Count)
system.cpu1.statIssuedInstType_0::SimdShaSigma3            0      0.00%     68.49% # Number of instructions issued per FU type, per thread (Count)
system.cpu1.statIssuedInstType_0::SimdPredAlu            0      0.00%     68.49% # Number of instructions issued per FU type, per thread (Count)
system.cpu1.statIssuedInstType_0::MemRead       938187     10.95%     79.45% # Number of instructions issued per FU type, per thread (Count)
system.cpu1.statIssuedInstType_0::MemWrite       914802     10.68%     90.13% # Number of instructions issued per FU type, per thread (Count)
system.cpu1.statIssuedInstType_0::FloatMemRead       433484      5.06%     95.19% # Number of instructions issued per FU type, per thread (Count)
system.cpu1.statIssuedInstType_0::FloatMemWrite       411905      4.81%    100.00% # Number of instructions issued per FU type, per thread (Count)
system.cpu1.statIssuedInstType_0::IprAccess            0      0.00%    100.00% # Number of instructions issued per FU type, per thread (Count)
system.cpu1.statIssuedInstType_0::InstPrefetch            0      0.00%    100.00% # Number of instructions issued per FU type, per thread (Count)
system.cpu1.statIssuedInstType_0::total       8564817                       # Number of instructions issued per FU type, per thread (Count)
system.cpu1.issueRate                        0.685497                       # Inst issue rate ((Count/Cycle))
system.cpu1.fuBusy                              99994                       # FU busy when requested (Count)
system.cpu1.fuBusyRate                       0.011675                       # FU busy rate (busy events/executed inst) ((Count/Count))
system.cpu1.intInstQueueReads                26701846                       # Number of integer instruction queue reads (Count)
system.cpu1.intInstQueueWrites                9175135                       # Number of integer instruction queue writes (Count)
system.cpu1.intInstQueueWakeupAccesses        7590470                       # Number of integer instruction queue wakeup accesses (Count)
system.cpu1.fpInstQueueReads                  1850000                       # Number of floating instruction queue reads (Count)
system.cpu1.fpInstQueueWrites                  980454                       # Number of floating instruction queue writes (Count)
system.cpu1.fpInstQueueWakeupAccesses          898217                       # Number of floating instruction queue wakeup accesses (Count)
system.cpu1.vecInstQueueReads                       0                       # Number of vector instruction queue reads (Count)
system.cpu1.vecInstQueueWrites                      0                       # Number of vector instruction queue writes (Count)
system.cpu1.vecInstQueueWakeupAccesses              0                       # Number of vector instruction queue wakeup accesses (Count)
system.cpu1.intAluAccesses                    7703905                       # Number of integer alu accesses (Count)
system.cpu1.fpAluAccesses                      941621                       # Number of floating point alu accesses (Count)
system.cpu1.vecAluAccesses                          0                       # Number of vector alu accesses (Count)
system.cpu1.numInsts                          8526272                       # Number of executed instructions (Count)
system.cpu1.numLoadInsts                      1360000                       # Number of load instructions executed (Count)
system.cpu1.numSquashedInsts                    38545                       # Number of squashed instructions skipped in execute (Count)
system.cpu1.numSwp                                  0                       # Number of swp insts executed (Count)
system.cpu1.numNop                                  0                       # Number of nop insts executed (Count)
system.cpu1.numRefs                           2683672                       # Number of memory reference insts executed (Count)
system.cpu1.numBranches                        451456                       # Number of branches executed (Count)
[...]
system.ruby.network.ext_out_link_utilization      4220114                       (Unspecified)
system.ruby.network.flit_network_latency |105689529500                       |209626024000                       | 28991412000                       (Unspecified)
system.ruby.network.flit_queueing_latency |  2170799500                       |  1935754500                       |   148775000                       (Unspecified)
system.ruby.network.flits_injected       |     1000355     23.70%     23.70% |     2922209     69.24%     92.95% |      297551      7.05%    100.00% (Unspecified)
system.ruby.network.flits_injected::total      4220115                       (Unspecified)
system.ruby.network.flits_received       |     1000355     23.70%     23.70% |     2922209     69.24%     92.95% |      297550      7.05%    100.00% (Unspecified)
system.ruby.network.flits_received::total      4220114                       (Unspecified)
system.ruby.network.int_link_utilization     12782939                       (Unspecified)
system.ruby.network.packet_network_latency | 79300147000                       | 69316301500                       | 28991412000                       (Unspecified)
system.ruby.network.packet_queueing_latency |  1776885500                       |   514654500                       |   148775000                       (Unspecified)
system.ruby.network.packets_injected     |      815999     42.29%     42.29% |      815997     42.29%     84.58% |      297551     15.42%    100.00% (Unspecified)
system.ruby.network.packets_injected::total      1929547                       (Unspecified)
system.ruby.network.packets_received     |      815999     42.29%     42.29% |      815997     42.29%     84.58% |      297550     15.42%    100.00% (Unspecified)
system.ruby.network.packets_received::total      1929546                       (Unspecified)
system.ruby.network.routers00.Var_1                 0                       (Unspecified)
system.ruby.network.routers00.Var_2                 0                       (Unspecified)
system.ruby.network.routers00.Var_3                 0                       (Unspecified)
system.ruby.network.routers00.all_counts            0                       (Unspecified)
system.ruby.network.routers00.buffer_reads       754445                       (Unspecified)
system.ruby.network.routers00.buffer_writes       754445                       (Unspecified)
system.ruby.network.routers00.crossbar_activity       754445                       (Unspecified)
system.ruby.network.routers00.detour_counts        53797                       (Unspecified)
system.ruby.network.routers00.regular_var            0                       (Unspecified)
system.ruby.network.routers00.risk_counts            0                       (Unspecified)
system.ruby.network.routers00.sw_input_arbiter_activity       759977                       (Unspecified)
system.ruby.network.routers00.sw_output_arbiter_activity       754445                       (Unspecified)
system.ruby.network.routers01.Var_1                 0                       (Unspecified)
system.ruby.network.routers01.Var_2                 0                       (Unspecified)
system.ruby.network.routers01.Var_3                 0                       (Unspecified)
system.ruby.network.routers01.all_counts            0                       (Unspecified)
system.ruby.network.routers01.buffer_reads      1081959                       (Unspecified)
system.ruby.network.routers01.buffer_writes      1081959                       (Unspecified)
system.ruby.network.routers01.crossbar_activity      1081959                       (Unspecified)
system.ruby.network.routers01.detour_counts        53951                       (Unspecified)
system.ruby.network.routers01.regular_var            0                       (Unspecified)
system.ruby.network.routers01.risk_counts            0                       (Unspecified)
system.ruby.network.routers01.sw_input_arbiter_activity      1094186                       (Unspecified)
system.ruby.network.routers01.sw_output_arbiter_activity      1081959                       (Unspecified)
system.ruby.network.routers02.Var_1                 0                       (Unspecified)
system.ruby.network.routers02.Var_2                 0                       (Unspecified)
system.ruby.network.routers02.Var_3                 0                       (Unspecified)
system.ruby.network.routers02.all_counts            0                       (Unspecified)
system.ruby.network.routers02.buffer_reads      1085510                       (Unspecified)
system.ruby.network.routers02.buffer_writes      1085510                       (Unspecified)
system.ruby.network.routers02.crossbar_activity      1085510                       (Unspecified)
system.ruby.network.routers02.detour_counts        53844                       (Unspecified)
system.ruby.network.routers02.regular_var            0                       (Unspecified)
system.ruby.network.routers02.risk_counts            0                       (Unspecified)
system.ruby.network.routers02.sw_input_arbiter_activity      1097684                       (Unspecified)
system.ruby.network.routers02.sw_output_arbiter_activity      1085510                       (Unspecified)
system.ruby.network.routers03.Var_1                 0                       (Unspecified)
system.ruby.network.routers03.Var_2                 0                       (Unspecified)
system.ruby.network.routers03.Var_3                 0                       (Unspecified)
system.ruby.network.routers03.all_counts            0                       (Unspecified)
system.ruby.network.routers03.buffer_reads       746584                       (Unspecified)
system.ruby.network.routers03.buffer_writes       746584                       (Unspecified)
system.ruby.network.routers03.crossbar_activity       746584                       (Unspecified)
system.ruby.network.routers03.detour_counts        53912                       (Unspecified)
system.ruby.network.routers03.regular_var            0                       (Unspecified)
system.ruby.network.routers03.risk_counts            0                       (Unspecified)
system.ruby.network.routers03.sw_input_arbiter_activity       752004                       (Unspecified)
system.ruby.network.routers03.sw_output_arbiter_activity       746584                       (Unspecified)
system.ruby.network.routers04.Var_1                 0                       (Unspecified)
system.ruby.network.routers04.Var_2                 0                       (Unspecified)
system.ruby.network.routers04.Var_3                 0                       (Unspecified)
system.ruby.network.routers04.all_counts            0                       (Unspecified)
system.ruby.network.routers04.buffer_reads      1055255                       (Unspecified)
system.ruby.network.routers04.buffer_writes      1055255                       (Unspecified)
system.ruby.network.routers04.crossbar_activity      1055255                       (Unspecified)
system.ruby.network.routers04.detour_counts        53898                       (Unspecified)
system.ruby.network.routers04.regular_var            0                       (Unspecified)
system.ruby.network.routers04.risk_counts            0                       (Unspecified)
system.ruby.network.routers04.sw_input_arbiter_activity      1066584                       (Unspecified)
system.ruby.network.routers04.sw_output_arbiter_activity      1055255                       (Unspecified)
system.ruby.network.routers05.Var_1                 0                       (Unspecified)
system.ruby.network.routers05.Var_2                 0                       (Unspecified)
system.ruby.network.routers05.Var_3                 0                       (Unspecified)
system.ruby.network.routers05.all_counts            0                       (Unspecified)
system.ruby.network.routers05.buffer_reads      1381437                       (Unspecified)
system.ruby.network.routers05.buffer_writes      1381437                       (Unspecified)
system.ruby.network.routers05.crossbar_activity      1381437                       (Unspecified)
system.ruby.network.routers05.detour_counts        53941                       (Unspecified)
system.ruby.network.routers05.regular_var            0                       (Unspecified)
system.ruby.network.routers05.risk_counts            0                       (Unspecified)
system.ruby.network.routers05.sw_input_arbiter_activity      1399572                       (Unspecified)
system.ruby.network.routers05.sw_output_arbiter_activity      1381437                       (Unspecified)
system.ruby.network.routers06.Var_1                 0                       (Unspecified)
system.ruby.network.routers06.Var_2                 0                       (Unspecified)
system.ruby.network.routers06.Var_3                 0                       (Unspecified)
system.ruby.network.routers06.all_counts            0                       (Unspecified)
system.ruby.network.routers06.buffer_reads      1382797                       (Unspecified)
system.ruby.network.routers06.buffer_writes      1382797                       (Unspecified)
system.ruby.network.routers06.crossbar_activity      1382797                       (Unspecified)
system.ruby.network.routers06.detour_counts        53864                       (Unspecified)
system.ruby.network.routers06.regular_var            0                       (Unspecified)
system.ruby.network.routers06.risk_counts            0                       (Unspecified)
system.ruby.network.routers06.sw_input_arbiter_activity      1401252                       (Unspecified)
system.ruby.network.routers06.sw_output_arbiter_activity      1382797                       (Unspecified)
system.ruby.network.routers07.Var_1                 0                       (Unspecified)
system.ruby.network.routers07.Var_2                 0                       (Unspecified)
system.ruby.network.routers07.Var_3                 0                       (Unspecified)
system.ruby.network.routers07.all_counts            0                       (Unspecified)
system.ruby.network.routers07.buffer_reads      1043283                       (Unspecified)
system.ruby.network.routers07.buffer_writes      1043283                       (Unspecified)
system.ruby.network.routers07.crossbar_activity      1043283                       (Unspecified)
system.ruby.network.routers07.detour_counts        54016                       (Unspecified)
system.ruby.network.routers07.regular_var            0                       (Unspecified)
system.ruby.network.routers07.risk_counts            0                       (Unspecified)
system.ruby.network.routers07.sw_input_arbiter_activity      1054740                       (Unspecified)
system.ruby.network.routers07.sw_output_arbiter_activity      1043283                       (Unspecified)
system.ruby.network.routers08.Var_1                 0                       (Unspecified)
system.ruby.network.routers08.Var_2                 0                       (Unspecified)
system.ruby.network.routers08.Var_3                 0                       (Unspecified)
system.ruby.network.routers08.all_counts            0                       (Unspecified)
system.ruby.network.routers08.buffer_reads      1052069                       (Unspecified)
system.ruby.network.routers08.buffer_writes      1052069                       (Unspecified)
system.ruby.network.routers08.crossbar_activity      1052069                       (Unspecified)
system.ruby.network.routers08.detour_counts        53882                       (Unspecified)
system.ruby.network.routers08.regular_var            0                       (Unspecified)
system.ruby.network.routers08.risk_counts            0                       (Unspecified)
system.ruby.network.routers08.sw_input_arbiter_activity      1063547                       (Unspecified)
system.ruby.network.routers08.sw_output_arbiter_activity      1052069                       (Unspecified)
system.ruby.network.routers09.Var_1                 0                       (Unspecified)
system.ruby.network.routers09.Var_2                 0                       (Unspecified)
system.ruby.network.routers09.Var_3                 0                       (Unspecified)
system.ruby.network.routers09.all_counts            0                       (Unspecified)
system.ruby.network.routers09.buffer_reads      1380385                       (Unspecified)
system.ruby.network.routers09.buffer_writes      1380385                       (Unspecified)
system.ruby.network.routers09.crossbar_activity      1380385                       (Unspecified)
system.ruby.network.routers09.detour_counts        53798                       (Unspecified)
system.ruby.network.routers09.regular_var            0                       (Unspecified)
system.ruby.network.routers09.risk_counts            0                       (Unspecified)
system.ruby.network.routers09.sw_input_arbiter_activity      1398846                       (Unspecified)
system.ruby.network.routers09.sw_output_arbiter_activity      1380385                       (Unspecified)
system.ruby.network.routers10.Var_1                 0                       (Unspecified)
system.ruby.network.routers10.Var_2                 0                       (Unspecified)
system.ruby.network.routers10.Var_3                 0                       (Unspecified)
system.ruby.network.routers10.all_counts            0                       (Unspecified)
system.ruby.network.routers10.buffer_reads      1378412                       (Unspecified)
system.ruby.network.routers10.buffer_writes      1378412                       (Unspecified)
system.ruby.network.routers10.crossbar_activity      1378412                       (Unspecified)
system.ruby.network.routers10.detour_counts        53798                       (Unspecified)
system.ruby.network.routers10.regular_var            0                       (Unspecified)
system.ruby.network.routers10.risk_counts            0                       (Unspecified)
system.ruby.network.routers10.sw_input_arbiter_activity      1396709                       (Unspecified)
system.ruby.network.routers10.sw_output_arbiter_activity      1378412                       (Unspecified)
system.ruby.network.routers11.Var_1                 0                       (Unspecified)
system.ruby.network.routers11.Var_2                 0                       (Unspecified)
system.ruby.network.routers11.Var_3                 0                       (Unspecified)
system.ruby.network.routers11.all_counts            0                       (Unspecified)
system.ruby.network.routers11.buffer_reads      1038236                       (Unspecified)
system.ruby.network.routers11.buffer_writes      1038236                       (Unspecified)
system.ruby.network.routers11.crossbar_activity      1038236                       (Unspecified)
system.ruby.network.routers11.detour_counts        54026                       (Unspecified)
system.ruby.network.routers11.regular_var            0                       (Unspecified)
system.ruby.network.routers11.risk_counts            0                       (Unspecified)
system.ruby.network.routers11.sw_input_arbiter_activity      1049337                       (Unspecified)
system.ruby.network.routers11.sw_output_arbiter_activity      1038236                       (Unspecified)
system.ruby.network.routers12.Var_1                 0                       (Unspecified)
system.ruby.network.routers12.Var_2                 0                       (Unspecified)
system.ruby.network.routers12.Var_3                 0                       (Unspecified)
system.ruby.network.routers12.all_counts            0                       (Unspecified)
system.ruby.network.routers12.buffer_reads       743493                       (Unspecified)
system.ruby.network.routers12.buffer_writes       743493                       (Unspecified)
system.ruby.network.routers12.crossbar_activity       743493                       (Unspecified)
system.ruby.network.routers12.detour_counts        53964                       (Unspecified)
system.ruby.network.routers12.regular_var            0                       (Unspecified)
system.ruby.network.routers12.risk_counts            0                       (Unspecified)
system.ruby.network.routers12.sw_input_arbiter_activity       748938                       (Unspecified)
system.ruby.network.routers12.sw_output_arbiter_activity       743493                       (Unspecified)
system.ruby.network.routers13.Var_1                 0                       (Unspecified)
system.ruby.network.routers13.Var_2                 0                       (Unspecified)
system.ruby.network.routers13.Var_3                 0                       (Unspecified)
system.ruby.network.routers13.all_counts            0                       (Unspecified)
system.ruby.network.routers13.buffer_reads      1073163                       (Unspecified)
system.ruby.network.routers13.buffer_writes      1073163                       (Unspecified)
system.ruby.network.routers13.crossbar_activity      1073163                       (Unspecified)
system.ruby.network.routers13.detour_counts        53841                       (Unspecified)
system.ruby.network.routers13.regular_var            0                       (Unspecified)
system.ruby.network.routers13.risk_counts            0                       (Unspecified)
system.ruby.network.routers13.sw_input_arbiter_activity      1085319                       (Unspecified)
system.ruby.network.routers13.sw_output_arbiter_activity      1073163                       (Unspecified)
system.ruby.network.routers14.Var_1                 0                       (Unspecified)
system.ruby.network.routers14.Var_2                 0                       (Unspecified)
system.ruby.network.routers14.Var_3                 0                       (Unspecified)
system.ruby.network.routers14.all_counts            0                       (Unspecified)
system.ruby.network.routers14.buffer_reads      1068059                       (Unspecified)
system.ruby.network.routers14.buffer_writes      1068059                       (Unspecified)
system.ruby.network.routers14.crossbar_activity      1068059                       (Unspecified)
system.ruby.network.routers14.detour_counts        54016                       (Unspecified)
system.ruby.network.routers14.regular_var            0                       (Unspecified)
system.ruby.network.routers14.risk_counts            0                       (Unspecified)
system.ruby.network.routers14.sw_input_arbiter_activity      1080104                       (Unspecified)
system.ruby.network.routers14.sw_output_arbiter_activity      1068059                       (Unspecified)
system.ruby.network.routers15.Var_1                 0                       (Unspecified)
system.ruby.network.routers15.Var_2                 0                       (Unspecified)
system.ruby.network.routers15.Var_3                 0                       (Unspecified)
system.ruby.network.routers15.all_counts            0                       (Unspecified)
system.ruby.network.routers15.buffer_reads       737966                       (Unspecified)
system.ruby.network.routers15.buffer_writes       737966                       (Unspecified)
system.ruby.network.routers15.crossbar_activity       737966                       (Unspecified)
system.ruby.network.routers15.detour_counts        54035                       (Unspecified)
system.ruby.network.routers15.regular_var            0                       (Unspecified)
system.ruby.network.routers15.risk_counts            0                       (Unspecified)
system.ruby.network.routers15.sw_input_arbiter_activity       743191                       (Unspecified)
system.ruby.network.routers15.sw_output_arbiter_activity       737966                       (Unspecified)

---------- End Simulation Statistics   ----------
