
---------- Begin Simulation Statistics ----------
simSeconds                                   0.005422                       # Number of seconds simulated (Second)
simTicks                                   5422458500                       # Number of ticks simulated (Tick)
finalTick                                  5422458500                       # Number of ticks from beginning of simulation (restored from checkpoints and never reset) (Tick)
simFreq                                  1000000000000                       # The number of ticks per simulated second ((Tick/Second))
hostSeconds                                    783.07                       # Real time elapsed on the host (Second)
hostTickRate                                  6924638                       # The number of ticks simulated per host second (ticks/s) ((Tick/Second))
hostMemory                                   11457188                       # Number of bytes of host memory used (Byte)
simInsts                                     37158448                       # Number of instructions simulated (Count)
simOps                                       63621008                       # Number of ops (including micro ops) simulated (Count)
hostInstRate                                    47452                       # Simulator instruction rate (inst/s) ((Count/Second))
hostOpRate                                      81246                       # Simulator op (including micro ops) rate (op/s) ((Count/Second))
system.clk_domain.clock                          1000                       # Clock period in ticks (Tick)
system.cpu0.numCycles                        10695332                       # Number of cpu cycles simulated (Cycle)
system.cpu0.numWorkItemsStarted                     0                       # Number of work items this cpu started (Count)
system.cpu0.numWorkItemsCompleted                   0                       # Number of work items this cpu completed (Count)
system.cpu0.instsAdded                        5031758                       # Number of instructions added to the IQ (excludes non-spec) (Count)
system.cpu0.nonSpecInstsAdded                    1100                       # Number of non-speculative instructions added to the IQ (Count)
system.cpu0.instsIssued                       4666473                       # Number of instructions issued (Count)
system.cpu0.squashedInstsIssued                  2844                       # Number of squashed instructions issued (Count)
system.cpu0.squashedInstsExamined             1056545                       # Number of squashed instructions iterated over during squash; mainly for profiling (Count)
system.cpu0.squashedOperandsExamined          2274206                       # Number of squashed operands that are examined and possibly removed from graph (Count)
system.cpu0.squashedNonSpecRemoved                247                       # Number of squashed non-spec instructions that were removed (Count)
system.cpu0.numIssuedDist::samples            9475763                       # Number of insts issued each cycle (Count)
system.cpu0.numIssuedDist::mean              0.492464                       # Number of insts issued each cycle (Count)
system.cpu0.numIssuedDist::stdev             1.413776                       # Number of insts issued each cycle (Count)
system.cpu0.numIssuedDist::underflows               0      0.00%      0.00% # Number of insts issued each cycle (Count)
system.cpu0.numIssuedDist::0                  8143026     85.94%     85.94% # Number of insts issued each cycle (Count)
system.cpu0.numIssuedDist::1                   222812      2.35%     88.29% # Number of insts issued each cycle (Count)
system.cpu0.numIssuedDist::2                   261914      2.76%     91.05% # Number of insts issued each cycle (Count)
system.cpu0.numIssuedDist::3                   251170      2.65%     93.70% # Number of insts issued each cycle (Count)
system.cpu0.numIssuedDist::4                   203299      2.15%     95.85% # Number of insts issued each cycle (Count)
system.cpu0.numIssuedDist::5                   157153      1.66%     97.51% # Number of insts issued each cycle (Count)
system.cpu0.numIssuedDist::6                   126309      1.33%     98.84% # Number of insts issued each cycle (Count)
system.cpu0.numIssuedDist::7                    71132      0.75%     99.59% # Number of insts issued each cycle (Count)
system.cpu0.numIssuedDist::8                    38948      0.41%    100.00% # Number of insts issued each cycle (Count)
system.cpu0.numIssuedDist::overflows                0      0.00%    100.00% # Number of insts issued each cycle (Count)
system.cpu0.numIssuedDist::min_value                0                       # Number of insts issued each cycle (Count)
system.cpu0.numIssuedDist::max_value                8                       # Number of insts issued each cycle (Count)
system.cpu0.numIssuedDist::total              9475763                       # Number of insts issued each cycle (Count)
system.cpu0.statFuBusy::No_OpClass                  0      0.00%      0.00% # attempts to use FU when none available (Count)
system.cpu0.statFuBusy::IntAlu                  42284     63.60%     63.60% # attempts to use FU when none available (Count)
system.cpu0.statFuBusy::IntMult                     0      0.00%     63.60% # attempts to use FU when none available (Count)
system.cpu0.statFuBusy::IntDiv                      0      0.00%     63.60% # attempts to use FU when none available (Count)
system.cpu0.statFuBusy::FloatAdd                    0      0.00%     63.60% # attempts to use FU when none available (Count)
system.cpu0.statFuBusy::FloatCmp                    0      0.00%     63.60% # attempts to use FU when none available (Count)
system.cpu0.statFuBusy::FloatCvt                    1      0.00%     63.60% # attempts to use FU when none available (Count)
system.cpu0.statFuBusy::FloatMult                   0      0.00%     63.60% # attempts to use FU when none available (Count)
system.cpu0.statFuBusy::FloatMultAcc                0      0.00%     63.60% # attempts to use FU when none available (Count)
system.cpu0.statFuBusy::FloatDiv                    0      0.00%     63.60% # attempts to use FU when none available (Count)
system.cpu0.statFuBusy::FloatMisc                   0      0.00%     63.60% # attempts to use FU when none available (Count)
system.cpu0.statFuBusy::FloatSqrt                   0      0.00%     63.60% # attempts to use FU when none available (Count)
system.cpu0.statFuBusy::SimdAdd                     0      0.00%     63.60% # attempts to use FU when none available (Count)
system.cpu0.statFuBusy::SimdAddAcc                  0      0.00%     63.60% # attempts to use FU when none available (Count)
system.cpu0.statFuBusy::SimdAlu                   124      0.19%     63.79% # attempts to use FU when none available (Count)
system.cpu0.statFuBusy::SimdCmp                     0      0.00%     63.79% # attempts to use FU when none available (Count)
system.cpu0.statFuBusy::SimdCvt                   165      0.25%     64.04% # attempts to use FU when none available (Count)
system.cpu0.statFuBusy::SimdMisc                    0      0.00%     64.04% # attempts to use FU when none available (Count)
system.cpu0.statFuBusy::SimdMult                    0      0.00%     64.04% # attempts to use FU when none available (Count)
system.cpu0.statFuBusy::SimdMultAcc                 0      0.00%     64.04% # attempts to use FU when none available (Count)
system.cpu0.statFuBusy::SimdShift                 206      0.31%     64.35% # attempts to use FU when none available (Count)
system.cpu0.statFuBusy::SimdShiftAcc                0      0.00%     64.35% # attempts to use FU when none available (Count)
system.cpu0.statFuBusy::SimdDiv                     0      0.00%     64.35% # attempts to use FU when none available (Count)
system.cpu0.statFuBusy::SimdSqrt                    0      0.00%     64.35% # attempts to use FU when none available (Count)
system.cpu0.statFuBusy::SimdFloatAdd                0      0.00%     64.35% # attempts to use FU when none available (Count)
system.cpu0.statFuBusy::SimdFloatAlu                0      0.00%     64.35% # attempts to use FU when none available (Count)
system.cpu0.statFuBusy::SimdFloatCmp                0      0.00%     64.35% # attempts to use FU when none available (Count)
system.cpu0.statFuBusy::SimdFloatCvt                0      0.00%     64.35% # attempts to use FU when none available (Count)
system.cpu0.statFuBusy::SimdFloatDiv                0      0.00%     64.35% # attempts to use FU when none available (Count)
system.cpu0.statFuBusy::SimdFloatMisc               0      0.00%     64.35% # attempts to use FU when none available (Count)
system.cpu0.statFuBusy::SimdFloatMult               0      0.00%     64.35% # attempts to use FU when none available (Count)
system.cpu0.statFuBusy::SimdFloatMultAcc            0      0.00%     64.35% # attempts to use FU when none available (Count)
system.cpu0.statFuBusy::SimdFloatSqrt               0      0.00%     64.35% # attempts to use FU when none available (Count)
system.cpu0.statFuBusy::SimdReduceAdd               0      0.00%     64.35% # attempts to use FU when none available (Count)
system.cpu0.statFuBusy::SimdReduceAlu               0      0.00%     64.35% # attempts to use FU when none available (Count)
system.cpu0.statFuBusy::SimdReduceCmp               0      0.00%     64.35% # attempts to use FU when none available (Count)
system.cpu0.statFuBusy::SimdFloatReduceAdd            0      0.00%     64.35% # attempts to use FU when none available (Count)
system.cpu0.statFuBusy::SimdFloatReduceCmp            0      0.00%     64.35% # attempts to use FU when none available (Count)
system.cpu0.statFuBusy::SimdAes                     0      0.00%     64.35% # attempts to use FU when none available (Count)
system.cpu0.statFuBusy::SimdAesMix                  0      0.00%     64.35% # attempts to use FU when none available (Count)
system.cpu0.statFuBusy::SimdSha1Hash                0      0.00%     64.35% # attempts to use FU when none available (Count)
system.cpu0.statFuBusy::SimdSha1Hash2               0      0.00%     64.35% # attempts to use FU when none available (Count)
system.cpu0.statFuBusy::SimdSha256Hash              0      0.00%     64.35% # attempts to use FU when none available (Count)
system.cpu0.statFuBusy::SimdSha256Hash2             0      0.00%     64.35% # attempts to use FU when none available (Count)
system.cpu0.statFuBusy::SimdShaSigma2               0      0.00%     64.35% # attempts to use FU when none available (Count)
system.cpu0.statFuBusy::SimdShaSigma3               0      0.00%     64.35% # attempts to use FU when none available (Count)
system.cpu0.statFuBusy::SimdPredAlu                 0      0.00%     64.35% # attempts to use FU when none available (Count)
system.cpu0.statFuBusy::MemRead                 12049     18.12%     82.47% # attempts to use FU when none available (Count)
system.cpu0.statFuBusy::MemWrite                 7865     11.83%     94.30% # attempts to use FU when none available (Count)
system.cpu0.statFuBusy::FloatMemRead             1956      2.94%     97.24% # attempts to use FU when none available (Count)
system.cpu0.statFuBusy::FloatMemWrite            1835      2.76%    100.00% # attempts to use FU when none available (Count)
system.cpu0.statFuBusy::IprAccess                   0      0.00%    100.00% # attempts to use FU when none available (Count)
system.cpu0.statFuBusy::InstPrefetch                0      0.00%    100.00% # attempts to use FU when none available (Count)
system.cpu0.statIssuedInstType_0::No_OpClass        17793      0.38%      0.38% # Number of instructions issued per FU type, per thread (Count)
system.cpu0.statIssuedInstType_0::IntAlu      3591508     76.96%     77.35% # Number of instructions issued per FU type, per thread (Count)
system.cpu0.statIssuedInstType_0::IntMult           36      0.00%     77.35% # Number of instructions issued per FU type, per thread (Count)
system.cpu0.statIssuedInstType_0::IntDiv        38353      0.82%     78.17% # Number of instructions issued per FU type, per thread (Count)
system.cpu0.statIssuedInstType_0::FloatAdd         4380      0.09%     78.26% # Number of instructions issued per FU type, per thread (Count)
system.cpu0.statIssuedInstType_0::FloatCmp            0      0.00%     78.26% # Number of instructions issued per FU type, per thread (Count)
system.cpu0.statIssuedInstType_0::FloatCvt         1684      0.04%     78.30% # Number of instructions issued per FU type, per thread (Count)
system.cpu0.statIssuedInstType_0::FloatMult            0      0.00%     78.30% # Number of instructions issued per FU type, per thread (Count)
system.cpu0.statIssuedInstType_0::FloatMultAcc            0      0.00%     78.30% # Number of instructions issued per FU type, per thread (Count)
system.cpu0.statIssuedInstType_0::FloatDiv            0      0.00%     78.30% # Number of instructions issued per FU type, per thread (Count)
system.cpu0.statIssuedInstType_0::FloatMisc            0      0.00%     78.30% # Number of instructions issued per FU type, per thread (Count)
system.cpu0.statIssuedInstType_0::FloatSqrt            0      0.00%     78.30% # Number of instructions issued per FU type, per thread (Count)
system.cpu0.statIssuedInstType_0::SimdAdd         8533      0.18%     78.48% # Number of instructions issued per FU type, per thread (Count)
system.cpu0.statIssuedInstType_0::SimdAddAcc            0      0.00%     78.48% # Number of instructions issued per FU type, per thread (Count)
system.cpu0.statIssuedInstType_0::SimdAlu        17253      0.37%     78.85% # Number of instructions issued per FU type, per thread (Count)
system.cpu0.statIssuedInstType_0::SimdCmp            0      0.00%     78.85% # Number of instructions issued per FU type, per thread (Count)
system.cpu0.statIssuedInstType_0::SimdCvt        18906      0.41%     79.26% # Number of instructions issued per FU type, per thread (Count)
system.cpu0.statIssuedInstType_0::SimdMisc         8990      0.19%     79.45% # Number of instructions issued per FU type, per thread (Count)
system.cpu0.statIssuedInstType_0::SimdMult            0      0.00%     79.45% # Number of instructions issued per FU type, per thread (Count)
system.cpu0.statIssuedInstType_0::SimdMultAcc            0      0.00%     79.45% # Number of instructions issued per FU type, per thread (Count)
system.cpu0.statIssuedInstType_0::SimdShift         3001      0.06%     79.51% # Number of instructions issued per FU type, per thread (Count)
system.cpu0.statIssuedInstType_0::SimdShiftAcc            0      0.00%     79.51% # Number of instructions issued per FU type, per thread (Count)
system.cpu0.statIssuedInstType_0::SimdDiv            0      0.00%     79.51% # Number of instructions issued per FU type, per thread (Count)
system.cpu0.statIssuedInstType_0::SimdSqrt            0      0.00%     79.51% # Number of instructions issued per FU type, per thread (Count)
system.cpu0.statIssuedInstType_0::SimdFloatAdd            0      0.00%     79.51% # Number of instructions issued per FU type, per thread (Count)
system.cpu0.statIssuedInstType_0::SimdFloatAlu            0      0.00%     79.51% # Number of instructions issued per FU type, per thread (Count)
system.cpu0.statIssuedInstType_0::SimdFloatCmp            0      0.00%     79.51% # Number of instructions issued per FU type, per thread (Count)
system.cpu0.statIssuedInstType_0::SimdFloatCvt            0      0.00%     79.51% # Number of instructions issued per FU type, per thread (Count)
system.cpu0.statIssuedInstType_0::SimdFloatDiv            0      0.00%     79.51% # Number of instructions issued per FU type, per thread (Count)
system.cpu0.statIssuedInstType_0::SimdFloatMisc            0      0.00%     79.51% # Number of instructions issued per FU type, per thread (Count)
system.cpu0.statIssuedInstType_0::SimdFloatMult            0      0.00%     79.51% # Number of instructions issued per FU type, per thread (Count)
system.cpu0.statIssuedInstType_0::SimdFloatMultAcc            0      0.00%     79.51% # Number of instructions issued per FU type, per thread (Count)
system.cpu0.statIssuedInstType_0::SimdFloatSqrt            0      0.00%     79.51% # Number of instructions issued per FU type, per thread (Count)
system.cpu0.statIssuedInstType_0::SimdReduceAdd            0      0.00%     79.51% # Number of instructions issued per FU type, per thread (Count)
system.cpu0.statIssuedInstType_0::SimdReduceAlu            0      0.00%     79.51% # Number of instructions issued per FU type, per thread (Count)
system.cpu0.statIssuedInstType_0::SimdReduceCmp            0      0.00%     79.51% # Number of instructions issued per FU type, per thread (Count)
system.cpu0.statIssuedInstType_0::SimdFloatReduceAdd            0      0.00%     79.51% # Number of instructions issued per FU type, per thread (Count)
system.cpu0.statIssuedInstType_0::SimdFloatReduceCmp            0      0.00%     79.51% # Number of instructions issued per FU type, per thread (Count)
system.cpu0.statIssuedInstType_0::SimdAes            0      0.00%     79.51% # Number of instructions issued per FU type, per thread (Count)
system.cpu0.statIssuedInstType_0::SimdAesMix            0      0.00%     79.51% # Number of instructions issued per FU type, per thread (Count)
system.cpu0.statIssuedInstType_0::SimdSha1Hash            0      0.00%     79.51% # Number of instructions issued per FU type, per thread (Count)
system.cpu0.statIssuedInstType_0::SimdSha1Hash2            0      0.00%     79.51% # Number of instructions issued per FU type, per thread (Count)
system.cpu0.statIssuedInstType_0::SimdSha256Hash            0      0.00%     79.51% # Number of instructions issued per FU type, per thread (Count)
system.cpu0.statIssuedInstType_0::SimdSha256Hash2            0      0.00%     79.51% # Number of instructions issued per FU type, per thread (Count)
system.cpu0.statIssuedInstType_0::SimdShaSigma2            0      0.00%     79.51% # Number of instructions issued per FU type, per thread (Count)
system.cpu0.statIssuedInstType_0::SimdShaSigma3            0      0.00%     79.51% # Number of instructions issued per FU type, per thread (Count)
system.cpu0.statIssuedInstType_0::SimdPredAlu            0      0.00%     79.51% # Number of instructions issued per FU type, per thread (Count)
system.cpu0.statIssuedInstType_0::MemRead       620706     13.30%     92.81% # Number of instructions issued per FU type, per thread (Count)
system.cpu0.statIssuedInstType_0::MemWrite       233069      4.99%     97.81% # Number of instructions issued per FU type, per thread (Count)
system.cpu0.statIssuedInstType_0::FloatMemRead        59073      1.27%     99.07% # Number of instructions issued per FU type, per thread (Count)
system.cpu0.statIssuedInstType_0::FloatMemWrite        43188      0.93%    100.00% # Number of instructions issued per FU type, per thread (Count)
system.cpu0.statIssuedInstType_0::IprAccess            0      0.00%    100.00% # Number of instructions issued per FU type, per thread (Count)
system.cpu0.statIssuedInstType_0::InstPrefetch            0      0.00%    100.00% # Number of instructions issued per FU type, per thread (Count)
system.cpu0.statIssuedInstType_0::total       4666473                       # Number of instructions issued per FU type, per thread (Count)
system.cpu0.issueRate                        0.436309                       # Inst issue rate ((Count/Cycle))
system.cpu0.fuBusy                              66485                       # FU busy when requested (Count)
system.cpu0.fuBusyRate                       0.014247                       # FU busy rate (busy events/executed inst) ((Count/Count))
system.cpu0.intInstQueueReads                18541143                       # Number of integer instruction queue reads (Count)
system.cpu0.intInstQueueWrites                5860366                       # Number of integer instruction queue writes (Count)
system.cpu0.intInstQueueWakeupAccesses        4444363                       # Number of integer instruction queue wakeup accesses (Count)
system.cpu0.fpInstQueueReads                   336895                       # Number of floating instruction queue reads (Count)
system.cpu0.fpInstQueueWrites                  229187                       # Number of floating instruction queue writes (Count)
system.cpu0.fpInstQueueWakeupAccesses          162268                       # Number of floating instruction queue wakeup accesses (Count)
system.cpu0.vecInstQueueReads                       0                       # Number of vector instruction queue reads (Count)
system.cpu0.vecInstQueueWrites                      0                       # Number of vector instruction queue writes (Count)
system.cpu0.vecInstQueueWakeupAccesses              0                       # Number of vector instruction queue wakeup accesses (Count)
system.cpu0.intAluAccesses                    4544716                       # Number of integer alu accesses (Count)
system.cpu0.fpAluAccesses                      170449                       # Number of floating point alu accesses (Count)
system.cpu0.vecAluAccesses                          0                       # Number of vector alu accesses (Count)
system.cpu0.numInsts                          4635929                       # Number of executed instructions (Count)
system.cpu0.numLoadInsts                       671940                       # Number of load instructions executed (Count)
system.cpu0.numSquashedInsts                    30544                       # Number of squashed instructions skipped in execute (Count)
system.cpu0.numSwp                                  0                       # Number of swp insts executed (Count)
system.cpu0.numNop                                  0                       # Number of nop insts executed (Count)
system.cpu0.numRefs                            946108                       # Number of memory reference insts executed (Count)
system.cpu0.numBranches                        399169                       # Number of branches executed (Count)
system.cpu0.numStoreInsts                      274168                       # Number of stores executed (Count)
system.cpu0.numRate                          0.433453                       # Inst execution rate ((Count/Cycle))
system.cpu0.timesIdled                           2359                       # Number of times that the entire CPU went into an idle state and unscheduled itself (Count)
system.cpu0.idleCycles                        1219569                       # Total number of cycles that the CPU has spent unscheduled due to idling (Cycle)
system.cpu0.committedInsts                    2322403                       # Number of Instructions Simulated (Count)
system.cpu0.committedOps                      3976313                       # Number of Ops (including micro ops) Simulated (Count)
system.cpu0.cpi                              4.605287                       # CPI: Cycles Per Instruction ((Cycle/Count))
system.cpu0.totalCpi                         4.605287                       # CPI: Total CPI of All Threads ((Cycle/Count))
system.cpu0.ipc                              0.217142                       # IPC: Instructions Per Cycle ((Count/Cycle))
system.cpu0.totalIpc                         0.217142                       # IPC: Total IPC of All Threads ((Count/Cycle))
system.cpu0.intRegfileReads                   6284860                       # Number of integer regfile reads (Count)
system.cpu0.intRegfileWrites                  3554182                       # Number of integer regfile writes (Count)
system.cpu0.fpRegfileReads                     178007                       # Number of floating regfile reads (Count)
system.cpu0.fpRegfileWrites                    109761                       # Number of floating regfile writes (Count)
system.cpu0.ccRegfileReads                    2548316                       # number of cc regfile reads (Count)
system.cpu0.ccRegfileWrites                   2097940                       # number of cc regfile writes (Count)
system.cpu0.miscRegfileReads                  1801117                       # number of misc regfile reads (Count)
system.cpu0.miscRegfileWrites                     846                       # number of misc regfile writes (Count)
system.cpu0.MemDepUnit__0.insertedLoads        700475                       # Number of loads inserted to the mem dependence unit. (Count)
system.cpu0.MemDepUnit__0.insertedStores       286543                       # Number of stores inserted to the mem dependence unit. (Count)
system.cpu0.MemDepUnit__0.conflictingLoads        22455                       # Number of conflicting loads. (Count)
system.cpu0.MemDepUnit__0.conflictingStores         5902                       # Number of conflicting stores. (Count)
system.cpu0.MemDepUnit__1.insertedLoads             0                       # Number of loads inserted to the mem dependence unit. (Count)
system.cpu0.MemDepUnit__1.insertedStores            0                       # Number of stores inserted to the mem dependence unit. (Count)
system.cpu0.MemDepUnit__1.conflictingLoads            0                       # Number of conflicting loads. (Count)
system.cpu0.MemDepUnit__1.conflictingStores            0                       # Number of conflicting stores. (Count)
system.cpu0.MemDepUnit__2.insertedLoads             0                       # Number of loads inserted to the mem dependence unit. (Count)
system.cpu0.MemDepUnit__2.insertedStores            0                       # Number of stores inserted to the mem dependence unit. (Count)
system.cpu0.MemDepUnit__2.conflictingLoads            0                       # Number of conflicting loads. (Count)
system.cpu0.MemDepUnit__2.conflictingStores            0                       # Number of conflicting stores. (Count)
system.cpu0.MemDepUnit__3.insertedLoads             0                       # Number of loads inserted to the mem dependence unit. (Count)
system.cpu0.MemDepUnit__3.insertedStores            0                       # Number of stores inserted to the mem dependence unit. (Count)
system.cpu0.MemDepUnit__3.conflictingLoads            0                       # Number of conflicting loads. (Count)
system.cpu0.MemDepUnit__3.conflictingStores            0                       # Number of conflicting stores. (Count)
system.cpu0.branchPred.lookups                 516223                       # Number of BP lookups (Count)
system.cpu0.branchPred.condPredicted           457158                       # Number of conditional branches predicted (Count)
system.cpu0.branchPred.condIncorrect            17261                       # Number of conditional branches incorrect (Count)
system.cpu0.branchPred.BTBLookups              271872                       # Number of BTB lookups (Count)
system.cpu0.branchPred.BTBUpdates                8721                       # Number of BTB updates (Count)
system.cpu0.branchPred.BTBHits                 267725                       # Number of BTB hits (Count)
system.cpu0.branchPred.BTBHitRatio           0.984746                       # BTB Hit Ratio (Ratio)
system.cpu0.branchPred.RASUsed                  13640                       # Number of times the RAS was used to get a target. (Count)
system.cpu0.branchPred.RASIncorrect                 7                       # Number of incorrect RAS predictions. (Count)
system.cpu0.branchPred.indirectLookups          10059                       # Number of indirect predictor lookups. (Count)
system.cpu0.branchPred.indirectHits              5333                       # Number of indirect target hits. (Count)
system.cpu0.branchPred.indirectMisses            4726                       # Number of indirect misses. (Count)
system.cpu0.branchPred.indirectMispredicted         1248                       # Number of mispredicted indirect branches. (Count)
system.cpu0.commit.commitSquashedInsts        1047396                       # The number of squashed insts skipped by commit (Count)
system.cpu0.commit.commitNonSpecStalls            853                       # The number of times commit has been forced to stall to communicate backwards (Count)
system.cpu0.commit.branchMispredicts            18622                       # The number of times a branch was mispredicted (Count)
system.cpu0.commit.numCommittedDist::samples      9323784                       # Number of insts commited each cycle (Count)
system.cpu0.commit.numCommittedDist::mean     0.426470                       # Number of insts commited each cycle (Count)
system.cpu0.commit.numCommittedDist::stdev     1.481881                       # Number of insts commited each cycle (Count)
system.cpu0.commit.numCommittedDist::underflows            0      0.00%      0.00% # Number of insts commited each cycle (Count)
system.cpu0.commit.numCommittedDist::0        8280118     88.81%     88.81% # Number of insts commited each cycle (Count)
system.cpu0.commit.numCommittedDist::1         269881      2.89%     91.70% # Number of insts commited each cycle (Count)
system.cpu0.commit.numCommittedDist::2         117123      1.26%     92.96% # Number of insts commited each cycle (Count)
system.cpu0.commit.numCommittedDist::3         243273      2.61%     95.57% # Number of insts commited each cycle (Count)
system.cpu0.commit.numCommittedDist::4          50990      0.55%     96.11% # Number of insts commited each cycle (Count)
system.cpu0.commit.numCommittedDist::5         101847      1.09%     97.21% # Number of insts commited each cycle (Count)
system.cpu0.commit.numCommittedDist::6          17013      0.18%     97.39% # Number of insts commited each cycle (Count)
system.cpu0.commit.numCommittedDist::7          21218      0.23%     97.62% # Number of insts commited each cycle (Count)
system.cpu0.commit.numCommittedDist::8         222321      2.38%    100.00% # Number of insts commited each cycle (Count)
system.cpu0.commit.numCommittedDist::overflows            0      0.00%    100.00% # Number of insts commited each cycle (Count)
system.cpu0.commit.numCommittedDist::min_value            0                       # Number of insts commited each cycle (Count)
system.cpu0.commit.numCommittedDist::max_value            8                       # Number of insts commited each cycle (Count)
system.cpu0.commit.numCommittedDist::total      9323784                       # Number of insts commited each cycle (Count)
system.cpu0.commit.instsCommitted             2322403                       # Number of instructions committed (Count)
system.cpu0.commit.opsCommitted               3976313                       # Number of ops (including micro ops) committed (Count)
system.cpu0.commit.memRefs                     809635                       # Number of memory references committed (Count)
system.cpu0.commit.loads                       561319                       # Number of loads committed (Count)
system.cpu0.commit.amos                             0                       # Number of atomic instructions committed (Count)
system.cpu0.commit.membars                          2                       # Number of memory barriers committed (Count)
system.cpu0.commit.branches                    362969                       # Number of branches committed (Count)
system.cpu0.commit.vectorInstructions               0                       # Number of committed Vector instructions. (Count)
system.cpu0.commit.floating                    132087                       # Number of committed floating point instructions. (Count)
system.cpu0.commit.integer                    3916638                       # Number of committed integer instructions. (Count)
system.cpu0.commit.functionCalls                 9748                       # Number of function calls committed. (Count)
system.cpu0.commit.committedInstType_0::No_OpClass        10123      0.25%      0.25% # Class of committed instruction (Count)
system.cpu0.commit.committedInstType_0::IntAlu      3074701     77.33%     77.58% # Class of committed instruction (Count)
system.cpu0.commit.committedInstType_0::IntMult           29      0.00%     77.58% # Class of committed instruction (Count)
system.cpu0.commit.committedInstType_0::IntDiv        35987      0.91%     78.49% # Class of committed instruction (Count)
system.cpu0.commit.committedInstType_0::FloatAdd         3202      0.08%     78.57% # Class of committed instruction (Count)
system.cpu0.commit.committedInstType_0::FloatCmp            0      0.00%     78.57% # Class of committed instruction (Count)
system.cpu0.commit.committedInstType_0::FloatCvt         1504      0.04%     78.60% # Class of committed instruction (Count)
system.cpu0.commit.committedInstType_0::FloatMult            0      0.00%     78.60% # Class of committed instruction (Count)
system.cpu0.commit.committedInstType_0::FloatMultAcc            0      0.00%     78.60% # Class of committed instruction (Count)
system.cpu0.commit.committedInstType_0::FloatDiv            0      0.00%     78.60% # Class of committed instruction (Count)
system.cpu0.commit.committedInstType_0::FloatMisc            0      0.00%     78.60% # Class of committed instruction (Count)
system.cpu0.commit.committedInstType_0::FloatSqrt            0      0.00%     78.60% # Class of committed instruction (Count)
system.cpu0.commit.committedInstType_0::SimdAdd         6750      0.17%     78.77% # Class of committed instruction (Count)
system.cpu0.commit.committedInstType_0::SimdAddAcc            0      0.00%     78.77% # Class of committed instruction (Count)
system.cpu0.commit.committedInstType_0::SimdAlu        12220      0.31%     79.08% # Class of committed instruction (Count)
system.cpu0.commit.committedInstType_0::SimdCmp            0      0.00%     79.08% # Class of committed instruction (Count)
system.cpu0.commit.committedInstType_0::SimdCvt        13196      0.33%     79.41% # Class of committed instruction (Count)
system.cpu0.commit.committedInstType_0::SimdMisc         7208      0.18%     79.59% # Class of committed instruction (Count)
system.cpu0.commit.committedInstType_0::SimdMult            0      0.00%     79.59% # Class of committed instruction (Count)
system.cpu0.commit.committedInstType_0::SimdMultAcc            0      0.00%     79.59% # Class of committed instruction (Count)
system.cpu0.commit.committedInstType_0::SimdShift         1758      0.04%     79.64% # Class of committed instruction (Count)
system.cpu0.commit.committedInstType_0::SimdShiftAcc            0      0.00%     79.64% # Class of committed instruction (Count)
system.cpu0.commit.committedInstType_0::SimdDiv            0      0.00%     79.64% # Class of committed instruction (Count)
system.cpu0.commit.committedInstType_0::SimdSqrt            0      0.00%     79.64% # Class of committed instruction (Count)
system.cpu0.commit.committedInstType_0::SimdFloatAdd            0      0.00%     79.64% # Class of committed instruction (Count)
system.cpu0.commit.committedInstType_0::SimdFloatAlu            0      0.00%     79.64% # Class of committed instruction (Count)
system.cpu0.commit.committedInstType_0::SimdFloatCmp            0      0.00%     79.64% # Class of committed instruction (Count)
system.cpu0.commit.committedInstType_0::SimdFloatCvt            0      0.00%     79.64% # Class of committed instruction (Count)
system.cpu0.commit.committedInstType_0::SimdFloatDiv            0      0.00%     79.64% # Class of committed instruction (Count)
system.cpu0.commit.committedInstType_0::SimdFloatMisc            0      0.00%     79.64% # Class of committed instruction (Count)
system.cpu0.commit.committedInstType_0::SimdFloatMult            0      0.00%     79.64% # Class of committed instruction (Count)
system.cpu0.commit.committedInstType_0::SimdFloatMultAcc            0      0.00%     79.64% # Class of committed instruction (Count)
system.cpu0.commit.committedInstType_0::SimdFloatSqrt            0      0.00%     79.64% # Class of committed instruction (Count)
system.cpu0.commit.committedInstType_0::SimdReduceAdd            0      0.00%     79.64% # Class of committed instruction (Count)
system.cpu0.commit.committedInstType_0::SimdReduceAlu            0      0.00%     79.64% # Class of committed instruction (Count)
system.cpu0.commit.committedInstType_0::SimdReduceCmp            0      0.00%     79.64% # Class of committed instruction (Count)
system.cpu0.commit.committedInstType_0::SimdFloatReduceAdd            0      0.00%     79.64% # Class of committed instruction (Count)
system.cpu0.commit.committedInstType_0::SimdFloatReduceCmp            0      0.00%     79.64% # Class of committed instruction (Count)
system.cpu0.commit.committedInstType_0::SimdAes            0      0.00%     79.64% # Class of committed instruction (Count)
system.cpu0.commit.committedInstType_0::SimdAesMix            0      0.00%     79.64% # Class of committed instruction (Count)
system.cpu0.commit.committedInstType_0::SimdSha1Hash            0      0.00%     79.64% # Class of committed instruction (Count)
system.cpu0.commit.committedInstType_0::SimdSha1Hash2            0      0.00%     79.64% # Class of committed instruction (Count)
system.cpu0.commit.committedInstType_0::SimdSha256Hash            0      0.00%     79.64% # Class of committed instruction (Count)
system.cpu0.commit.committedInstType_0::SimdSha256Hash2            0      0.00%     79.64% # Class of committed instruction (Count)
system.cpu0.commit.committedInstType_0::SimdShaSigma2            0      0.00%     79.64% # Class of committed instruction (Count)
system.cpu0.commit.committedInstType_0::SimdShaSigma3            0      0.00%     79.64% # Class of committed instruction (Count)
system.cpu0.commit.committedInstType_0::SimdPredAlu            0      0.00%     79.64% # Class of committed instruction (Count)
system.cpu0.commit.committedInstType_0::MemRead       515026     12.95%     92.59% # Class of committed instruction (Count)
system.cpu0.commit.committedInstType_0::MemWrite       209260      5.26%     97.85% # Class of committed instruction (Count)
system.cpu0.commit.committedInstType_0::FloatMemRead        46293      1.16%     99.02% # Class of committed instruction (Count)
system.cpu0.commit.committedInstType_0::FloatMemWrite        39056      0.98%    100.00% # Class of committed instruction (Count)
system.cpu0.commit.committedInstType_0::IprAccess            0      0.00%    100.00% # Class of committed instruction (Count)
system.cpu0.commit.committedInstType_0::InstPrefetch            0      0.00%    100.00% # Class of committed instruction (Count)
system.cpu0.commit.committedInstType_0::total      3976313                       # Class of committed instruction (Count)
system.cpu0.commit.commitEligibleSamples       222321                       # number cycles where commit BW limit reached (Cycle)
system.cpu0.decode.idleCycles                  494182                       # Number of cycles decode is idle (Cycle)
system.cpu0.decode.blockedCycles              8219421                       # Number of cycles decode is blocked (Cycle)
system.cpu0.decode.runCycles                   532313                       # Number of cycles decode is running (Cycle)
system.cpu0.decode.unblockCycles               210500                       # Number of cycles decode is unblocking (Cycle)
system.cpu0.decode.squashCycles                 19347                       # Number of cycles decode is squashing (Cycle)
system.cpu0.decode.branchResolved              253826                       # Number of times decode resolved a branch (Count)
system.cpu0.decode.branchMispred                 1224                       # Number of times decode detected a branch misprediction (Count)
system.cpu0.decode.decodedInsts               5218191                       # Number of instructions handled by decode (Count)
system.cpu0.decode.squashedInsts                 5806                       # Number of squashed instructions handled by decode (Count)
system.cpu0.fetch.icacheStallCycles            493521                       # Number of cycles fetch is stalled on an Icache miss (Cycle)
system.cpu0.fetch.insts                       3170133                       # Number of instructions fetch has processed (Count)
system.cpu0.fetch.branches                     516223                       # Number of branches that fetch encountered (Count)
system.cpu0.fetch.predictedBranches            286698                       # Number of branches that fetch has predicted taken (Count)
system.cpu0.fetch.cycles                      8713366                       # Number of cycles fetch has run and was not squashing or blocked (Cycle)
system.cpu0.fetch.squashCycles                  41088                       # Number of cycles fetch has spent squashing (Cycle)
system.cpu0.fetch.miscStallCycles               13797                       # Number of cycles fetch has spent waiting on interrupts, or bad addresses, or out of MSHRs (Cycle)
system.cpu0.fetch.pendingTrapStallCycles        16912                       # Number of stall cycles due to pending traps (Cycle)
system.cpu0.fetch.icacheWaitRetryStallCycles       217623                       # Number of stall cycles due to full MSHR (Cycle)
system.cpu0.fetch.cacheLines                   286513                       # Number of cache lines fetched (Count)
system.cpu0.fetch.icacheSquashes                 4844                       # Number of outstanding Icache misses that were squashed (Count)
system.cpu0.fetch.nisnDist::samples           9475763                       # Number of instructions fetched each cycle (Total) (Count)
system.cpu0.fetch.nisnDist::mean             0.583208                       # Number of instructions fetched each cycle (Total) (Count)
system.cpu0.fetch.nisnDist::stdev            1.924504                       # Number of instructions fetched each cycle (Total) (Count)
system.cpu0.fetch.nisnDist::underflows              0      0.00%      0.00% # Number of instructions fetched each cycle (Total) (Count)
system.cpu0.fetch.nisnDist::0                 8558710     90.32%     90.32% # Number of instructions fetched each cycle (Total) (Count)
system.cpu0.fetch.nisnDist::1                   41616      0.44%     90.76% # Number of instructions fetched each cycle (Total) (Count)
system.cpu0.fetch.nisnDist::2                   47760      0.50%     91.27% # Number of instructions fetched each cycle (Total) (Count)
system.cpu0.fetch.nisnDist::3                   73510      0.78%     92.04% # Number of instructions fetched each cycle (Total) (Count)
system.cpu0.fetch.nisnDist::4                  139482      1.47%     93.51% # Number of instructions fetched each cycle (Total) (Count)
system.cpu0.fetch.nisnDist::5                   63651      0.67%     94.18% # Number of instructions fetched each cycle (Total) (Count)
system.cpu0.fetch.nisnDist::6                   35888      0.38%     94.56% # Number of instructions fetched each cycle (Total) (Count)
system.cpu0.fetch.nisnDist::7                   44000      0.46%     95.03% # Number of instructions fetched each cycle (Total) (Count)
system.cpu0.fetch.nisnDist::8                  471146      4.97%    100.00% # Number of instructions fetched each cycle (Total) (Count)
system.cpu0.fetch.nisnDist::overflows               0      0.00%    100.00% # Number of instructions fetched each cycle (Total) (Count)
system.cpu0.fetch.nisnDist::min_value               0                       # Number of instructions fetched each cycle (Total) (Count)
system.cpu0.fetch.nisnDist::max_value               8                       # Number of instructions fetched each cycle (Total) (Count)
system.cpu0.fetch.nisnDist::total             9475763                       # Number of instructions fetched each cycle (Total) (Count)
system.cpu0.fetch.branchRate                 0.048266                       # Number of branch fetches per cycle (Ratio)
system.cpu0.fetch.rate                       0.296403                       # Number of inst fetches per cycle ((Count/Cycle))
system.cpu0.iew.idleCycles                          0                       # Number of cycles IEW is idle (Cycle)
system.cpu0.iew.squashCycles                    19347                       # Number of cycles IEW is squashing (Cycle)
system.cpu0.iew.blockCycles                   5364086                       # Number of cycles IEW is blocking (Cycle)
system.cpu0.iew.unblockCycles                  155131                       # Number of cycles IEW is unblocking (Cycle)
system.cpu0.iew.dispatchedInsts               5032858                       # Number of instructions dispatched to IQ (Count)
system.cpu0.iew.dispSquashedInsts                1136                       # Number of squashed instructions skipped by dispatch (Count)
system.cpu0.iew.dispLoadInsts                  700475                       # Number of dispatched load instructions (Count)
system.cpu0.iew.dispStoreInsts                 286543                       # Number of dispatched store instructions (Count)
system.cpu0.iew.dispNonSpecInsts                  901                       # Number of dispatched non-speculative instructions (Count)
system.cpu0.iew.iqFullEvents                     7398                       # Number of times the IQ has become full, causing a stall (Count)
system.cpu0.iew.lsqFullEvents                  142586                       # Number of times the LSQ has become full, causing a stall (Count)
system.cpu0.iew.memOrderViolationEvents           157                       # Number of memory order violations (Count)
system.cpu0.iew.predictedTakenIncorrect          7947                       # Number of branches that were predicted taken incorrectly (Count)
system.cpu0.iew.predictedNotTakenIncorrect        12921                       # Number of branches that were predicted not taken incorrectly (Count)
system.cpu0.iew.branchMispredicts               20868                       # Number of branch mispredicts detected at execute (Count)
system.cpu0.iew.instsToCommit                 4618618                       # Cumulative count of insts sent to commit (Count)
system.cpu0.iew.writebackCount                4606631                       # Cumulative count of insts written-back (Count)
system.cpu0.iew.producerInst                  3628166                       # Number of instructions producing a value (Count)
system.cpu0.iew.consumerInst                  6698956                       # Number of instructions consuming a value (Count)
system.cpu0.iew.wbRate                       0.430714                       # Insts written-back per cycle ((Count/Cycle))
system.cpu0.iew.wbFanout                     0.541602                       # Average fanout of values written-back ((Count/Count))
system.cpu0.interrupts.clk_domain.clock          8000                       # Clock period in ticks (Tick)
system.cpu0.lsq0.forwLoads                      69249                       # Number of loads that had data forwarded from stores (Count)
system.cpu0.lsq0.squashedLoads                 139156                       # Number of loads squashed (Count)
system.cpu0.lsq0.ignoredResponses                  98                       # Number of memory responses ignored because the instruction is squashed (Count)
system.cpu0.lsq0.memOrderViolation                157                       # Number of memory ordering violations (Count)
system.cpu0.lsq0.squashedStores                 38227                       # Number of stores squashed (Count)
system.cpu0.lsq0.rescheduledLoads                  17                       # Number of loads that were rescheduled (Count)
system.cpu0.lsq0.blockedByCache                  2065                       # Number of times an access to memory failed due to the cache being blocked (Count)
system.cpu0.lsq0.loadToUse::samples            561241                       # Distribution of cycle latency between the first time a load is issued and its completion (Unspecified)
system.cpu0.lsq0.loadToUse::mean            61.790694                       # Distribution of cycle latency between the first time a load is issued and its completion (Unspecified)
system.cpu0.lsq0.loadToUse::stdev          216.020778                       # Distribution of cycle latency between the first time a load is issued and its completion (Unspecified)
system.cpu0.lsq0.loadToUse::0-9                515782     91.90%     91.90% # Distribution of cycle latency between the first time a load is issued and its completion (Unspecified)
system.cpu0.lsq0.loadToUse::10-19                  93      0.02%     91.92% # Distribution of cycle latency between the first time a load is issued and its completion (Unspecified)
system.cpu0.lsq0.loadToUse::20-29                  92      0.02%     91.93% # Distribution of cycle latency between the first time a load is issued and its completion (Unspecified)
system.cpu0.lsq0.loadToUse::30-39                  90      0.02%     91.95% # Distribution of cycle latency between the first time a load is issued and its completion (Unspecified)
system.cpu0.lsq0.loadToUse::40-49                  71      0.01%     91.96% # Distribution of cycle latency between the first time a load is issued and its completion (Unspecified)
system.cpu0.lsq0.loadToUse::50-59                  73      0.01%     91.97% # Distribution of cycle latency between the first time a load is issued and its completion (Unspecified)
system.cpu0.lsq0.loadToUse::60-69                  72      0.01%     91.99% # Distribution of cycle latency between the first time a load is issued and its completion (Unspecified)
system.cpu0.lsq0.loadToUse::70-79                  66      0.01%     92.00% # Distribution of cycle latency between the first time a load is issued and its completion (Unspecified)
system.cpu0.lsq0.loadToUse::80-89                  54      0.01%     92.01% # Distribution of cycle latency between the first time a load is issued and its completion (Unspecified)
system.cpu0.lsq0.loadToUse::90-99                  63      0.01%     92.02% # Distribution of cycle latency between the first time a load is issued and its completion (Unspecified)
system.cpu0.lsq0.loadToUse::100-109                38      0.01%     92.03% # Distribution of cycle latency between the first time a load is issued and its completion (Unspecified)
system.cpu0.lsq0.loadToUse::110-119                62      0.01%     92.04% # Distribution of cycle latency between the first time a load is issued and its completion (Unspecified)
system.cpu0.lsq0.loadToUse::120-129                68      0.01%     92.05% # Distribution of cycle latency between the first time a load is issued and its completion (Unspecified)
system.cpu0.lsq0.loadToUse::130-139                35      0.01%     92.06% # Distribution of cycle latency between the first time a load is issued and its completion (Unspecified)
system.cpu0.lsq0.loadToUse::140-149                53      0.01%     92.07% # Distribution of cycle latency between the first time a load is issued and its completion (Unspecified)
system.cpu0.lsq0.loadToUse::150-159                41      0.01%     92.07% # Distribution of cycle latency between the first time a load is issued and its completion (Unspecified)
system.cpu0.lsq0.loadToUse::160-169                65      0.01%     92.08% # Distribution of cycle latency between the first time a load is issued and its completion (Unspecified)
system.cpu0.lsq0.loadToUse::170-179               128      0.02%     92.11% # Distribution of cycle latency between the first time a load is issued and its completion (Unspecified)
system.cpu0.lsq0.loadToUse::180-189               617      0.11%     92.22% # Distribution of cycle latency between the first time a load is issued and its completion (Unspecified)
system.cpu0.lsq0.loadToUse::190-199                33      0.01%     92.22% # Distribution of cycle latency between the first time a load is issued and its completion (Unspecified)
system.cpu0.lsq0.loadToUse::200-209                39      0.01%     92.23% # Distribution of cycle latency between the first time a load is issued and its completion (Unspecified)
system.cpu0.lsq0.loadToUse::210-219                58      0.01%     92.24% # Distribution of cycle latency between the first time a load is issued and its completion (Unspecified)
system.cpu0.lsq0.loadToUse::220-229                75      0.01%     92.25% # Distribution of cycle latency between the first time a load is issued and its completion (Unspecified)
system.cpu0.lsq0.loadToUse::230-239               109      0.02%     92.27% # Distribution of cycle latency between the first time a load is issued and its completion (Unspecified)
system.cpu0.lsq0.loadToUse::240-249               538      0.10%     92.37% # Distribution of cycle latency between the first time a load is issued and its completion (Unspecified)
system.cpu0.lsq0.loadToUse::250-259                29      0.01%     92.37% # Distribution of cycle latency between the first time a load is issued and its completion (Unspecified)
system.cpu0.lsq0.loadToUse::260-269                42      0.01%     92.38% # Distribution of cycle latency between the first time a load is issued and its completion (Unspecified)
system.cpu0.lsq0.loadToUse::270-279                63      0.01%     92.39% # Distribution of cycle latency between the first time a load is issued and its completion (Unspecified)
system.cpu0.lsq0.loadToUse::280-289               121      0.02%     92.41% # Distribution of cycle latency between the first time a load is issued and its completion (Unspecified)
system.cpu0.lsq0.loadToUse::290-299               146      0.03%     92.44% # Distribution of cycle latency between the first time a load is issued and its completion (Unspecified)
system.cpu0.lsq0.loadToUse::overflows           42425      7.56%    100.00% # Distribution of cycle latency between the first time a load is issued and its completion (Unspecified)
system.cpu0.lsq0.loadToUse::min_value               2                       # Distribution of cycle latency between the first time a load is issued and its completion (Unspecified)
system.cpu0.lsq0.loadToUse::max_value            2498                       # Distribution of cycle latency between the first time a load is issued and its completion (Unspecified)
system.cpu0.lsq0.loadToUse::total              561241                       # Distribution of cycle latency between the first time a load is issued and its completion (Unspecified)
system.cpu0.mmu.dtb.rdAccesses                 666451                       # TLB accesses on read requests (Count)
system.cpu0.mmu.dtb.wrAccesses                 274180                       # TLB accesses on write requests (Count)
system.cpu0.mmu.dtb.rdMisses                     3222                       # TLB misses on read requests (Count)
system.cpu0.mmu.dtb.wrMisses                      422                       # TLB misses on write requests (Count)
system.cpu0.mmu.dtb.walker.power_state.pwrStateResidencyTicks::UNDEFINED   5422458500                       # Cumulative time (in ticks) in various power states (Tick)
system.cpu0.mmu.itb.rdAccesses                      0                       # TLB accesses on read requests (Count)
system.cpu0.mmu.itb.wrAccesses                 289159                       # TLB accesses on write requests (Count)
system.cpu0.mmu.itb.rdMisses                        0                       # TLB misses on read requests (Count)
system.cpu0.mmu.itb.wrMisses                     3221                       # TLB misses on write requests (Count)
system.cpu0.mmu.itb.walker.power_state.pwrStateResidencyTicks::UNDEFINED   5422458500                       # Cumulative time (in ticks) in various power states (Tick)
system.cpu0.power_state.pwrStateResidencyTicks::ON   5422458500                       # Cumulative time (in ticks) in various power states (Tick)
system.cpu0.rename.squashCycles                 19347                       # Number of cycles rename is squashing (Cycle)
system.cpu0.rename.idleCycles                  575599                       # Number of cycles rename is idle (Cycle)
system.cpu0.rename.blockCycles                7105242                       # Number of cycles rename is blocking (Cycle)
system.cpu0.rename.serializeStallCycles         23322                       # count of cycles rename stalled for serializing inst (Cycle)
system.cpu0.rename.runCycles                   652089                       # Number of cycles rename is running (Cycle)
system.cpu0.rename.unblockCycles              1100164                       # Number of cycles rename is unblocking (Cycle)
system.cpu0.rename.renamedInsts               5137004                       # Number of instructions processed by rename (Count)
system.cpu0.rename.ROBFullEvents               110094                       # Number of times rename has blocked due to ROB full (Count)
system.cpu0.rename.IQFullEvents                245505                       # Number of times rename has blocked due to IQ full (Count)
system.cpu0.rename.LQFullEvents                164678                       # Number of times rename has blocked due to LQ full (Count)
system.cpu0.rename.SQFullEvents                632574                       # Number of times rename has blocked due to SQ full (Count)
system.cpu0.rename.fullRegistersEvents           3303                       # Number of times there has been no free registers (Count)
system.cpu0.rename.renamedOperands           10664885                       # Number of destination operands rename has renamed (Count)
system.cpu0.rename.lookups                   19313684                       # Number of register rename lookups that rename has made (Count)
system.cpu0.rename.intLookups                 7219596                       # Number of integer rename lookups (Count)
system.cpu0.rename.fpLookups                   216352                       # Number of floating rename lookups (Count)
system.cpu0.rename.committedMaps              8295361                       # Number of HB maps that are committed (Count)
system.cpu0.rename.undoneMaps                 2369524                       # Number of HB maps that are undone due to squashing (Count)
system.cpu0.rename.serializing                    874                       # count of serializing insts renamed (Count)
system.cpu0.rename.tempSerializing                859                       # count of temporary serializing insts renamed (Count)
system.cpu0.rename.skidInsts                  1002969                       # count of insts added to the skid buffer (Count)
system.cpu0.rob.reads                        14117463                       # The number of ROB reads (Count)
system.cpu0.rob.writes                       10199632                       # The number of ROB writes (Count)
system.cpu0.thread_0.numInsts                 2322403                       # Number of Instructions committed (Count)
system.cpu0.thread_0.numOps                   3976313                       # Number of Ops committed (Count)
system.cpu0.thread_0.numMemRefs                     0                       # Number of Memory References (Count)
system.cpu0.workload.numSyscalls                   63                       # Number of system calls (Count)
system.cpu1.numCycles                        10412413                       # Number of cpu cycles simulated (Cycle)
system.cpu1.numWorkItemsStarted                     0                       # Number of work items this cpu started (Count)
system.cpu1.numWorkItemsCompleted                   0                       # Number of work items this cpu completed (Count)
system.cpu1.instsAdded                        5033494                       # Number of instructions added to the IQ (excludes non-spec) (Count)
system.cpu1.nonSpecInstsAdded                    1100                       # Number of non-speculative instructions added to the IQ (Count)
system.cpu1.instsIssued                       4667305                       # Number of instructions issued (Count)
system.cpu1.squashedInstsIssued                  2871                       # Number of squashed instructions issued (Count)
system.cpu1.squashedInstsExamined             1058281                       # Number of squashed instructions iterated over during squash; mainly for profiling (Count)
system.cpu1.squashedOperandsExamined          2280546                       # Number of squashed operands that are examined and possibly removed from graph (Count)
system.cpu1.squashedNonSpecRemoved                247                       # Number of squashed non-spec instructions that were removed (Count)
system.cpu1.numIssuedDist::samples            9251513                       # Number of insts issued each cycle (Count)
system.cpu1.numIssuedDist::mean              0.504491                       # Number of insts issued each cycle (Count)
system.cpu1.numIssuedDist::stdev             1.428945                       # Number of insts issued each cycle (Count)
system.cpu1.numIssuedDist::underflows               0      0.00%      0.00% # Number of insts issued each cycle (Count)
system.cpu1.numIssuedDist::0                  7919040     85.60%     85.60% # Number of insts issued each cycle (Count)
system.cpu1.numIssuedDist::1                   222449      2.40%     88.00% # Number of insts issued each cycle (Count)
system.cpu1.numIssuedDist::2                   261581      2.83%     90.83% # Number of insts issued each cycle (Count)
system.cpu1.numIssuedDist::3                   251362      2.72%     93.55% # Number of insts issued each cycle (Count)
system.cpu1.numIssuedDist::4                   203472      2.20%     95.75% # Number of insts issued each cycle (Count)
system.cpu1.numIssuedDist::5                   156971      1.70%     97.44% # Number of insts issued each cycle (Count)
system.cpu1.numIssuedDist::6                   126504      1.37%     98.81% # Number of insts issued each cycle (Count)
system.cpu1.numIssuedDist::7                    71231      0.77%     99.58% # Number of insts issued each cycle (Count)
system.cpu1.numIssuedDist::8                    38903      0.42%    100.00% # Number of insts issued each cycle (Count)
system.cpu1.numIssuedDist::overflows                0      0.00%    100.00% # Number of insts issued each cycle (Count)
system.cpu1.numIssuedDist::min_value                0                       # Number of insts issued each cycle (Count)
system.cpu1.numIssuedDist::max_value                8                       # Number of insts issued each cycle (Count)
system.cpu1.numIssuedDist::total              9251513                       # Number of insts issued each cycle (Count)
system.cpu1.statFuBusy::No_OpClass                  0      0.00%      0.00% # attempts to use FU when none available (Count)
system.cpu1.statFuBusy::IntAlu                  42343     63.58%     63.58% # attempts to use FU when none available (Count)
system.cpu1.statFuBusy::IntMult                     0      0.00%     63.58% # attempts to use FU when none available (Count)
system.cpu1.statFuBusy::IntDiv                      0      0.00%     63.58% # attempts to use FU when none available (Count)
system.cpu1.statFuBusy::FloatAdd                    0      0.00%     63.58% # attempts to use FU when none available (Count)
system.cpu1.statFuBusy::FloatCmp                    0      0.00%     63.58% # attempts to use FU when none available (Count)
system.cpu1.statFuBusy::FloatCvt                    1      0.00%     63.59% # attempts to use FU when none available (Count)
system.cpu1.statFuBusy::FloatMult                   0      0.00%     63.59% # attempts to use FU when none available (Count)
system.cpu1.statFuBusy::FloatMultAcc                0      0.00%     63.59% # attempts to use FU when none available (Count)
system.cpu1.statFuBusy::FloatDiv                    0      0.00%     63.59% # attempts to use FU when none available (Count)
system.cpu1.statFuBusy::FloatMisc                   0      0.00%     63.59% # attempts to use FU when none available (Count)
system.cpu1.statFuBusy::FloatSqrt                   0      0.00%     63.59% # attempts to use FU when none available (Count)
system.cpu1.statFuBusy::SimdAdd                     0      0.00%     63.59% # attempts to use FU when none available (Count)
system.cpu1.statFuBusy::SimdAddAcc                  0      0.00%     63.59% # attempts to use FU when none available (Count)
system.cpu1.statFuBusy::SimdAlu                   123      0.18%     63.77% # attempts to use FU when none available (Count)
system.cpu1.statFuBusy::SimdCmp                     0      0.00%     63.77% # attempts to use FU when none available (Count)
system.cpu1.statFuBusy::SimdCvt                   173      0.26%     64.03% # attempts to use FU when none available (Count)
system.cpu1.statFuBusy::SimdMisc                    0      0.00%     64.03% # attempts to use FU when none available (Count)
system.cpu1.statFuBusy::SimdMult                    0      0.00%     64.03% # attempts to use FU when none available (Count)
system.cpu1.statFuBusy::SimdMultAcc                 0      0.00%     64.03% # attempts to use FU when none available (Count)
system.cpu1.statFuBusy::SimdShift                 210      0.32%     64.35% # attempts to use FU when none available (Count)
system.cpu1.statFuBusy::SimdShiftAcc                0      0.00%     64.35% # attempts to use FU when none available (Count)
system.cpu1.statFuBusy::SimdDiv                     0      0.00%     64.35% # attempts to use FU when none available (Count)
system.cpu1.statFuBusy::SimdSqrt                    0      0.00%     64.35% # attempts to use FU when none available (Count)
system.cpu1.statFuBusy::SimdFloatAdd                0      0.00%     64.35% # attempts to use FU when none available (Count)
system.cpu1.statFuBusy::SimdFloatAlu                0      0.00%     64.35% # attempts to use FU when none available (Count)
system.cpu1.statFuBusy::SimdFloatCmp                0      0.00%     64.35% # attempts to use FU when none available (Count)
system.cpu1.statFuBusy::SimdFloatCvt                0      0.00%     64.35% # attempts to use FU when none available (Count)
system.cpu1.statFuBusy::SimdFloatDiv                0      0.00%     64.35% # attempts to use FU when none available (Count)
system.cpu1.statFuBusy::SimdFloatMisc               0      0.00%     64.35% # attempts to use FU when none available (Count)
system.cpu1.statFuBusy::SimdFloatMult               0      0.00%     64.35% # attempts to use FU when none available (Count)
system.cpu1.statFuBusy::SimdFloatMultAcc            0      0.00%     64.35% # attempts to use FU when none available (Count)
system.cpu1.statFuBusy::SimdFloatSqrt               0      0.00%     64.35% # attempts to use FU when none available (Count)
system.cpu1.statFuBusy::SimdReduceAdd               0      0.00%     64.35% # attempts to use FU when none available (Count)
system.cpu1.statFuBusy::SimdReduceAlu               0      0.00%     64.35% # attempts to use FU when none available (Count)
system.cpu1.statFuBusy::SimdReduceCmp               0      0.00%     64.35% # attempts to use FU when none available (Count)
system.cpu1.statFuBusy::SimdFloatReduceAdd            0      0.00%     64.35% # attempts to use FU when none available (Count)
system.cpu1.statFuBusy::SimdFloatReduceCmp            0      0.00%     64.35% # attempts to use FU when none available (Count)
system.cpu1.statFuBusy::SimdAes                     0      0.00%     64.35% # attempts to use FU when none available (Count)
system.cpu1.statFuBusy::SimdAesMix                  0      0.00%     64.35% # attempts to use FU when none available (Count)
system.cpu1.statFuBusy::SimdSha1Hash                0      0.00%     64.35% # attempts to use FU when none available (Count)
system.cpu1.statFuBusy::SimdSha1Hash2               0      0.00%     64.35% # attempts to use FU when none available (Count)
system.cpu1.statFuBusy::SimdSha256Hash              0      0.00%     64.35% # attempts to use FU when none available (Count)
system.cpu1.statFuBusy::SimdSha256Hash2             0      0.00%     64.35% # attempts to use FU when none available (Count)
system.cpu1.statFuBusy::SimdShaSigma2               0      0.00%     64.35% # attempts to use FU when none available (Count)
system.cpu1.statFuBusy::SimdShaSigma3               0      0.00%     64.35% # attempts to use FU when none available (Count)
system.cpu1.statFuBusy::SimdPredAlu                 0      0.00%     64.35% # attempts to use FU when none available (Count)
system.cpu1.statFuBusy::MemRead                 12065     18.12%     82.46% # attempts to use FU when none available (Count)
system.cpu1.statFuBusy::MemWrite                 7890     11.85%     94.31% # attempts to use FU when none available (Count)
system.cpu1.statFuBusy::FloatMemRead             1956      2.94%     97.25% # attempts to use FU when none available (Count)
system.cpu1.statFuBusy::FloatMemWrite            1832      2.75%    100.00% # attempts to use FU when none available (Count)
system.cpu1.statFuBusy::IprAccess                   0      0.00%    100.00% # attempts to use FU when none available (Count)
system.cpu1.statFuBusy::InstPrefetch                0      0.00%    100.00% # attempts to use FU when none available (Count)
system.cpu1.statIssuedInstType_0::No_OpClass        17709      0.38%      0.38% # Number of instructions issued per FU type, per thread (Count)
system.cpu1.statIssuedInstType_0::IntAlu      3592001     76.96%     77.34% # Number of instructions issued per FU type, per thread (Count)
system.cpu1.statIssuedInstType_0::IntMult           37      0.00%     77.34% # Number of instructions issued per FU type, per thread (Count)
system.cpu1.statIssuedInstType_0::IntDiv        38355      0.82%     78.16% # Number of instructions issued per FU type, per thread (Count)
system.cpu1.statIssuedInstType_0::FloatAdd         4367      0.09%     78.26% # Number of instructions issued per FU type, per thread (Count)
system.cpu1.statIssuedInstType_0::FloatCmp            0      0.00%     78.26% # Number of instructions issued per FU type, per thread (Count)
system.cpu1.statIssuedInstType_0::FloatCvt         1686      0.04%     78.29% # Number of instructions issued per FU type, per thread (Count)
system.cpu1.statIssuedInstType_0::FloatMult            0      0.00%     78.29% # Number of instructions issued per FU type, per thread (Count)
system.cpu1.statIssuedInstType_0::FloatMultAcc            0      0.00%     78.29% # Number of instructions issued per FU type, per thread (Count)
system.cpu1.statIssuedInstType_0::FloatDiv            0      0.00%     78.29% # Number of instructions issued per FU type, per thread (Count)
system.cpu1.statIssuedInstType_0::FloatMisc            0      0.00%     78.29% # Number of instructions issued per FU type, per thread (Count)
system.cpu1.statIssuedInstType_0::FloatSqrt            0      0.00%     78.29% # Number of instructions issued per FU type, per thread (Count)
system.cpu1.statIssuedInstType_0::SimdAdd         8523      0.18%     78.48% # Number of instructions issued per FU type, per thread (Count)
system.cpu1.statIssuedInstType_0::SimdAddAcc            0      0.00%     78.48% # Number of instructions issued per FU type, per thread (Count)
system.cpu1.statIssuedInstType_0::SimdAlu        17273      0.37%     78.85% # Number of instructions issued per FU type, per thread (Count)
system.cpu1.statIssuedInstType_0::SimdCmp            0      0.00%     78.85% # Number of instructions issued per FU type, per thread (Count)
system.cpu1.statIssuedInstType_0::SimdCvt        18908      0.41%     79.25% # Number of instructions issued per FU type, per thread (Count)
system.cpu1.statIssuedInstType_0::SimdMisc         8989      0.19%     79.44% # Number of instructions issued per FU type, per thread (Count)
system.cpu1.statIssuedInstType_0::SimdMult            0      0.00%     79.44% # Number of instructions issued per FU type, per thread (Count)
system.cpu1.statIssuedInstType_0::SimdMultAcc            0      0.00%     79.44% # Number of instructions issued per FU type, per thread (Count)
system.cpu1.statIssuedInstType_0::SimdShift         2982      0.06%     79.51% # Number of instructions issued per FU type, per thread (Count)
system.cpu1.statIssuedInstType_0::SimdShiftAcc            0      0.00%     79.51% # Number of instructions issued per FU type, per thread (Count)
system.cpu1.statIssuedInstType_0::SimdDiv            0      0.00%     79.51% # Number of instructions issued per FU type, per thread (Count)
system.cpu1.statIssuedInstType_0::SimdSqrt            0      0.00%     79.51% # Number of instructions issued per FU type, per thread (Count)
system.cpu1.statIssuedInstType_0::SimdFloatAdd            0      0.00%     79.51% # Number of instructions issued per FU type, per thread (Count)
system.cpu1.statIssuedInstType_0::SimdFloatAlu            0      0.00%     79.51% # Number of instructions issued per FU type, per thread (Count)
system.cpu1.statIssuedInstType_0::SimdFloatCmp            0      0.00%     79.51% # Number of instructions issued per FU type, per thread (Count)
system.cpu1.statIssuedInstType_0::SimdFloatCvt            0      0.00%     79.51% # Number of instructions issued per FU type, per thread (Count)
system.cpu1.statIssuedInstType_0::SimdFloatDiv            0      0.00%     79.51% # Number of instructions issued per FU type, per thread (Count)
system.cpu1.statIssuedInstType_0::SimdFloatMisc            0      0.00%     79.51% # Number of instructions issued per FU type, per thread (Count)
system.cpu1.statIssuedInstType_0::SimdFloatMult            0      0.00%     79.51% # Number of instructions issued per FU type, per thread (Count)
system.cpu1.statIssuedInstType_0::SimdFloatMultAcc            0      0.00%     79.51% # Number of instructions issued per FU type, per thread (Count)
system.cpu1.statIssuedInstType_0::SimdFloatSqrt            0      0.00%     79.51% # Number of instructions issued per FU type, per thread (Count)
system.cpu1.statIssuedInstType_0::SimdReduceAdd            0      0.00%     79.51% # Number of instructions issued per FU type, per thread (Count)
system.cpu1.statIssuedInstType_0::SimdReduceAlu            0      0.00%     79.51% # Number of instructions issued per FU type, per thread (Count)
system.cpu1.statIssuedInstType_0::SimdReduceCmp            0      0.00%     79.51% # Number of instructions issued per FU type, per thread (Count)
system.cpu1.statIssuedInstType_0::SimdFloatReduceAdd            0      0.00%     79.51% # Number of instructions issued per FU type, per thread (Count)
system.cpu1.statIssuedInstType_0::SimdFloatReduceCmp            0      0.00%     79.51% # Number of instructions issued per FU type, per thread (Count)
system.cpu1.statIssuedInstType_0::SimdAes            0      0.00%     79.51% # Number of instructions issued per FU type, per thread (Count)
system.cpu1.statIssuedInstType_0::SimdAesMix            0      0.00%     79.51% # Number of instructions issued per FU type, per thread (Count)
system.cpu1.statIssuedInstType_0::SimdSha1Hash            0      0.00%     79.51% # Number of instructions issued per FU type, per thread (Count)
system.cpu1.statIssuedInstType_0::SimdSha1Hash2            0      0.00%     79.51% # Number of instructions issued per FU type, per thread (Count)
system.cpu1.statIssuedInstType_0::SimdSha256Hash            0      0.00%     79.51% # Number of instructions issued per FU type, per thread (Count)
system.cpu1.statIssuedInstType_0::SimdSha256Hash2            0      0.00%     79.51% # Number of instructions issued per FU type, per thread (Count)
system.cpu1.statIssuedInstType_0::SimdShaSigma2            0      0.00%     79.51% # Number of instructions issued per FU type, per thread (Count)
system.cpu1.statIssuedInstType_0::SimdShaSigma3            0      0.00%     79.51% # Number of instructions issued per FU type, per thread (Count)
system.cpu1.statIssuedInstType_0::SimdPredAlu            0      0.00%     79.51% # Number of instructions issued per FU type, per thread (Count)
system.cpu1.statIssuedInstType_0::MemRead       621075     13.31%     92.81% # Number of instructions issued per FU type, per thread (Count)
system.cpu1.statIssuedInstType_0::MemWrite       233103      4.99%     97.81% # Number of instructions issued per FU type, per thread (Count)
system.cpu1.statIssuedInstType_0::FloatMemRead        59101      1.27%     99.07% # Number of instructions issued per FU type, per thread (Count)
system.cpu1.statIssuedInstType_0::FloatMemWrite        43196      0.93%    100.00% # Number of instructions issued per FU type, per thread (Count)
system.cpu1.statIssuedInstType_0::IprAccess            0      0.00%    100.00% # Number of instructions issued per FU type, per thread (Count)
system.cpu1.statIssuedInstType_0::InstPrefetch            0      0.00%    100.00% # Number of instructions issued per FU type, per thread (Count)
system.cpu1.statIssuedInstType_0::total       4667305                       # Number of instructions issued per FU type, per thread (Count)
system.cpu1.issueRate                        0.448244                       # Inst issue rate ((Count/Cycle))
system.cpu1.fuBusy                              66593                       # FU busy when requested (Count)
system.cpu1.fuBusyRate                       0.014268                       # FU busy rate (busy events/executed inst) ((Count/Count))
system.cpu1.intInstQueueReads                18318659                       # Number of integer instruction queue reads (Count)
system.cpu1.intInstQueueWrites                5863569                       # Number of integer instruction queue writes (Count)
system.cpu1.intInstQueueWakeupAccesses        4444993                       # Number of integer instruction queue wakeup accesses (Count)
system.cpu1.fpInstQueueReads                   336928                       # Number of floating instruction queue reads (Count)
system.cpu1.fpInstQueueWrites                  229455                       # Number of floating instruction queue writes (Count)
system.cpu1.fpInstQueueWakeupAccesses          162278                       # Number of floating instruction queue wakeup accesses (Count)
system.cpu1.vecInstQueueReads                       0                       # Number of vector instruction queue reads (Count)
system.cpu1.vecInstQueueWrites                      0                       # Number of vector instruction queue writes (Count)
system.cpu1.vecInstQueueWakeupAccesses              0                       # Number of vector instruction queue wakeup accesses (Count)
system.cpu1.intAluAccesses                    4545722                       # Number of integer alu accesses (Count)
system.cpu1.fpAluAccesses                      170467                       # Number of floating point alu accesses (Count)
system.cpu1.vecAluAccesses                          0                       # Number of vector alu accesses (Count)
system.cpu1.numInsts                          4636624                       # Number of executed instructions (Count)
system.cpu1.numLoadInsts                       672195                       # Number of load instructions executed (Count)
system.cpu1.numSquashedInsts                    30681                       # Number of squashed instructions skipped in execute (Count)
system.cpu1.numSwp                                  0                       # Number of swp insts executed (Count)
system.cpu1.numNop                                  0                       # Number of nop insts executed (Count)
system.cpu1.numRefs                            946410                       # Number of memory reference insts executed (Count)
system.cpu1.numBranches                        399182                       # Number of branches executed (Count)
[...]
system.ruby.network.ext_out_link_utilization      4216853                       (Unspecified)
system.ruby.network.flit_network_latency |105576610000                       |209526212500                       | 28970295000                       (Unspecified)
system.ruby.network.flit_queueing_latency |  2167060000                       |  1976042500                       |   148687000                       (Unspecified)
system.ruby.network.flits_injected       |      999778     23.71%     23.71% |     2919702     69.24%     92.95% |      297376      7.05%    100.00% (Unspecified)
system.ruby.network.flits_injected::total      4216856                       (Unspecified)
system.ruby.network.flits_received       |      999777     23.71%     23.71% |     2919702     69.24%     92.95% |      297374      7.05%    100.00% (Unspecified)
system.ruby.network.flits_received::total      4216853                       (Unspecified)
system.ruby.network.int_link_utilization     12767486                       (Unspecified)
system.ruby.network.packet_network_latency | 79212847000                       | 69282019500                       | 28970295000                       (Unspecified)
system.ruby.network.packet_queueing_latency |  1770454000                       |   524864500                       |   148687000                       (Unspecified)
system.ruby.network.packets_injected     |      815362     42.29%     42.29% |      815358     42.29%     84.58% |      297376     15.42%    100.00% (Unspecified)
system.ruby.network.packets_injected::total      1928096                       (Unspecified)
system.ruby.network.packets_received     |      815361     42.29%     42.29% |      815358     42.29%     84.58% |      297374     15.42%    100.00% (Unspecified)
system.ruby.network.packets_received::total      1928093                       (Unspecified)
system.ruby.network.routers00.Var_1                 0                       (Unspecified)
system.ruby.network.routers00.Var_2                 0                       (Unspecified)
system.ruby.network.routers00.Var_3                 0                       (Unspecified)
system.ruby.network.routers00.all_counts            0                       (Unspecified)
system.ruby.network.routers00.buffer_reads       755650                       (Unspecified)
system.ruby.network.routers00.buffer_writes       755650                       (Unspecified)
system.ruby.network.routers00.crossbar_activity       755650                       (Unspecified)
system.ruby.network.routers00.detour_counts        53763                       (Unspecified)
system.ruby.network.routers00.regular_var            0                       (Unspecified)
system.ruby.network.routers00.risk_counts            0                       (Unspecified)
system.ruby.network.routers00.sw_input_arbiter_activity       761354                       (Unspecified)
system.ruby.network.routers00.sw_output_arbiter_activity       755650                       (Unspecified)
system.ruby.network.routers01.Var_1                 0                       (Unspecified)
system.ruby.network.routers01.Var_2                 0                       (Unspecified)
system.ruby.network.routers01.Var_3                 0                       (Unspecified)
system.ruby.network.routers01.all_counts            0                       (Unspecified)
system.ruby.network.routers01.buffer_reads      1083744                       (Unspecified)
system.ruby.network.routers01.buffer_writes      1083744                       (Unspecified)
system.ruby.network.routers01.crossbar_activity      1083744                       (Unspecified)
system.ruby.network.routers01.detour_counts        53886                       (Unspecified)
system.ruby.network.routers01.regular_var            0                       (Unspecified)
system.ruby.network.routers01.risk_counts            0                       (Unspecified)
system.ruby.network.routers01.sw_input_arbiter_activity      1096174                       (Unspecified)
system.ruby.network.routers01.sw_output_arbiter_activity      1083744                       (Unspecified)
system.ruby.network.routers02.Var_1                 0                       (Unspecified)
system.ruby.network.routers02.Var_2                 0                       (Unspecified)
system.ruby.network.routers02.Var_3                 0                       (Unspecified)
system.ruby.network.routers02.all_counts            0                       (Unspecified)
system.ruby.network.routers02.buffer_reads      1085646                       (Unspecified)
system.ruby.network.routers02.buffer_writes      1085646                       (Unspecified)
system.ruby.network.routers02.crossbar_activity      1085646                       (Unspecified)
system.ruby.network.routers02.detour_counts        53791                       (Unspecified)
system.ruby.network.routers02.regular_var            0                       (Unspecified)
system.ruby.network.routers02.risk_counts            0                       (Unspecified)
system.ruby.network.routers02.sw_input_arbiter_activity      1098142                       (Unspecified)
system.ruby.network.routers02.sw_output_arbiter_activity      1085646                       (Unspecified)
system.ruby.network.routers03.Var_1                 0                       (Unspecified)
system.ruby.network.routers03.Var_2                 0                       (Unspecified)
system.ruby.network.routers03.Var_3                 0                       (Unspecified)
system.ruby.network.routers03.all_counts            0                       (Unspecified)
system.ruby.network.routers03.buffer_reads       745400                       (Unspecified)
system.ruby.network.routers03.buffer_writes       745400                       (Unspecified)
system.ruby.network.routers03.crossbar_activity       745400                       (Unspecified)
system.ruby.network.routers03.detour_counts        53897                       (Unspecified)
system.ruby.network.routers03.regular_var            0                       (Unspecified)
system.ruby.network.routers03.risk_counts            0                       (Unspecified)
system.ruby.network.routers03.sw_input_arbiter_activity       751028                       (Unspecified)
system.ruby.network.routers03.sw_output_arbiter_activity       745400                       (Unspecified)
system.ruby.network.routers04.Var_1                 0                       (Unspecified)
system.ruby.network.routers04.Var_2                 0                       (Unspecified)
system.ruby.network.routers04.Var_3                 0                       (Unspecified)
system.ruby.network.routers04.all_counts            0                       (Unspecified)
system.ruby.network.routers04.buffer_reads      1054291                       (Unspecified)
system.ruby.network.routers04.buffer_writes      1054291                       (Unspecified)
system.ruby.network.routers04.crossbar_activity      1054291                       (Unspecified)
system.ruby.network.routers04.detour_counts        53855                       (Unspecified)
system.ruby.network.routers04.regular_var            0                       (Unspecified)
system.ruby.network.routers04.risk_counts            0                       (Unspecified)
system.ruby.network.routers04.sw_input_arbiter_activity      1065696                       (Unspecified)
system.ruby.network.routers04.sw_output_arbiter_activity      1054291                       (Unspecified)
system.ruby.network.routers05.Var_1                 0                       (Unspecified)
system.ruby.network.routers05.Var_2                 0                       (Unspecified)
system.ruby.network.routers05.Var_3                 0                       (Unspecified)
system.ruby.network.routers05.all_counts            0                       (Unspecified)
system.ruby.network.routers05.buffer_reads      1378641                       (Unspecified)
system.ruby.network.routers05.buffer_writes      1378641                       (Unspecified)
system.ruby.network.routers05.crossbar_activity      1378641                       (Unspecified)
system.ruby.network.routers05.detour_counts        53845                       (Unspecified)
system.ruby.network.routers05.regular_var            0                       (Unspecified)
system.ruby.network.routers05.risk_counts            0                       (Unspecified)
system.ruby.network.routers05.sw_input_arbiter_activity      1396545                       (Unspecified)
system.ruby.network.routers05.sw_output_arbiter_activity      1378641                       (Unspecified)
system.ruby.network.routers06.Var_1                 0                       (Unspecified)
system.ruby.network.routers06.Var_2                 0                       (Unspecified)
system.ruby.network.routers06.Var_3                 0                       (Unspecified)
system.ruby.network.routers06.all_counts            0                       (Unspecified)
system.ruby.network.routers06.buffer_reads      1377276                       (Unspecified)
system.ruby.network.routers06.buffer_writes      1377276                       (Unspecified)
system.ruby.network.routers06.crossbar_activity      1377276                       (Unspecified)
system.ruby.network.routers06.detour_counts        53840                       (Unspecified)
system.ruby.network.routers06.regular_var            0                       (Unspecified)
system.ruby.network.routers06.risk_counts            0                       (Unspecified)
system.ruby.network.routers06.sw_input_arbiter_activity      1395922                       (Unspecified)
system.ruby.network.routers06.sw_output_arbiter_activity      1377276                       (Unspecified)
system.ruby.network.routers07.Var_1                 0                       (Unspecified)
system.ruby.network.routers07.Var_2                 0                       (Unspecified)
system.ruby.network.routers07.Var_3                 0                       (Unspecified)
system.ruby.network.routers07.all_counts            0                       (Unspecified)
system.ruby.network.routers07.buffer_reads      1040907                       (Unspecified)
system.ruby.network.routers07.buffer_writes      1040907                       (Unspecified)
system.ruby.network.routers07.crossbar_activity      1040907                       (Unspecified)
system.ruby.network.routers07.detour_counts        53953                       (Unspecified)
system.ruby.network.routers07.regular_var            0                       (Unspecified)
system.ruby.network.routers07.risk_counts            0                       (Unspecified)
system.ruby.network.routers07.sw_input_arbiter_activity      1052194                       (Unspecified)
system.ruby.network.routers07.sw_output_arbiter_activity      1040907                       (Unspecified)
system.ruby.network.routers08.Var_1                 0                       (Unspecified)
system.ruby.network.routers08.Var_2                 0                       (Unspecified)
system.ruby.network.routers08.Var_3                 0                       (Unspecified)
system.ruby.network.routers08.all_counts            0                       (Unspecified)
system.ruby.network.routers08.buffer_reads      1051766                       (Unspecified)
system.ruby.network.routers08.buffer_writes      1051766                       (Unspecified)
system.ruby.network.routers08.crossbar_activity      1051766                       (Unspecified)
system.ruby.network.routers08.detour_counts        53826                       (Unspecified)
system.ruby.network.routers08.regular_var            0                       (Unspecified)
system.ruby.network.routers08.risk_counts            0                       (Unspecified)
system.ruby.network.routers08.sw_input_arbiter_activity      1063297                       (Unspecified)
system.ruby.network.routers08.sw_output_arbiter_activity      1051766                       (Unspecified)
system.ruby.network.routers09.Var_1                 0                       (Unspecified)
system.ruby.network.routers09.Var_2                 0                       (Unspecified)
system.ruby.network.routers09.Var_3                 0                       (Unspecified)
system.ruby.network.routers09.all_counts            0                       (Unspecified)
system.ruby.network.routers09.buffer_reads      1379427                       (Unspecified)
system.ruby.network.routers09.buffer_writes      1379427                       (Unspecified)
system.ruby.network.routers09.crossbar_activity      1379427                       (Unspecified)
system.ruby.network.routers09.detour_counts        53763                       (Unspecified)
system.ruby.network.routers09.regular_var            0                       (Unspecified)
system.ruby.network.routers09.risk_counts            0                       (Unspecified)
system.ruby.network.routers09.sw_input_arbiter_activity      1397266                       (Unspecified)
system.ruby.network.routers09.sw_output_arbiter_activity      1379427                       (Unspecified)
system.ruby.network.routers10.Var_1                 0                       (Unspecified)
system.ruby.network.routers10.Var_2                 0                       (Unspecified)
system.ruby.network.routers10.Var_3                 0                       (Unspecified)
system.ruby.network.routers10.all_counts            0                       (Unspecified)
system.ruby.network.routers10.buffer_reads      1376605                       (Unspecified)
system.ruby.network.routers10.buffer_writes      1376605                       (Unspecified)
system.ruby.network.routers10.crossbar_activity      1376605                       (Unspecified)
system.ruby.network.routers10.detour_counts        53811                       (Unspecified)
system.ruby.network.routers10.regular_var            0                       (Unspecified)
system.ruby.network.routers10.risk_counts            0                       (Unspecified)
system.ruby.network.routers10.sw_input_arbiter_activity      1394764                       (Unspecified)
system.ruby.network.routers10.sw_output_arbiter_activity      1376605                       (Unspecified)
system.ruby.network.routers11.Var_1                 0                       (Unspecified)
system.ruby.network.routers11.Var_2                 0                       (Unspecified)
system.ruby.network.routers11.Var_3                 0                       (Unspecified)
system.ruby.network.routers11.all_counts            0                       (Unspecified)
system.ruby.network.routers11.buffer_reads      1037191                       (Unspecified)
system.ruby.network.routers11.buffer_writes      1037191                       (Unspecified)
system.ruby.network.routers11.crossbar_activity      1037191                       (Unspecified)
system.ruby.network.routers11.detour_counts        54025                       (Unspecified)
system.ruby.network.routers11.regular_var            0                       (Unspecified)
system.ruby.network.routers11.risk_counts            0                       (Unspecified)
system.ruby.network.routers11.sw_input_arbiter_activity      1048449                       (Unspecified)
system.ruby.network.routers11.sw_output_arbiter_activity      1037191                       (Unspecified)
system.ruby.network.routers12.Var_1                 0                       (Unspecified)
system.ruby.network.routers12.Var_2                 0                       (Unspecified)
system.ruby.network.routers12.Var_3                 0                       (Unspecified)
system.ruby.network.routers12.all_counts            0                       (Unspecified)
system.ruby.network.routers12.buffer_reads       742793                       (Unspecified)
system.ruby.network.routers12.buffer_writes       742793                       (Unspecified)
system.ruby.network.routers12.crossbar_activity       742793                       (Unspecified)
system.ruby.network.routers12.detour_counts        53895                       (Unspecified)
system.ruby.network.routers12.regular_var            0                       (Unspecified)
system.ruby.network.routers12.risk_counts            0                       (Unspecified)
system.ruby.network.routers12.sw_input_arbiter_activity       748305                       (Unspecified)
system.ruby.network.routers12.sw_output_arbiter_activity       742793                       (Unspecified)
system.ruby.network.routers13.Var_1                 0                       (Unspecified)
system.ruby.network.routers13.Var_2                 0                       (Unspecified)
system.ruby.network.routers13.Var_3                 0                       (Unspecified)
system.ruby.network.routers13.all_counts            0                       (Unspecified)
system.ruby.network.routers13.buffer_reads      1071443                       (Unspecified)
system.ruby.network.routers13.buffer_writes      1071443                       (Unspecified)
system.ruby.network.routers13.crossbar_activity      1071443                       (Unspecified)
system.ruby.network.routers13.detour_counts        53857                       (Unspecified)
system.ruby.network.routers13.regular_var            0                       (Unspecified)
system.ruby.network.routers13.risk_counts            0                       (Unspecified)
system.ruby.network.routers13.sw_input_arbiter_activity      1083882                       (Unspecified)
system.ruby.network.routers13.sw_output_arbiter_activity      1071443                       (Unspecified)
system.ruby.network.routers14.Var_1                 0                       (Unspecified)
system.ruby.network.routers14.Var_2                 0                       (Unspecified)
system.ruby.network.routers14.Var_3                 0                       (Unspecified)
system.ruby.network.routers14.all_counts            0                       (Unspecified)
system.ruby.network.routers14.buffer_reads      1066966                       (Unspecified)
system.ruby.network.routers14.buffer_writes      1066966                       (Unspecified)
system.ruby.network.routers14.crossbar_activity      1066966                       (Unspecified)
system.ruby.network.routers14.detour_counts        54016                       (Unspecified)
system.ruby.network.routers14.regular_var            0                       (Unspecified)
system.ruby.network.routers14.risk_counts            0                       (Unspecified)
system.ruby.network.routers14.sw_input_arbiter_activity      1078967                       (Unspecified)
system.ruby.network.routers14.sw_output_arbiter_activity      1066966                       (Unspecified)
system.ruby.network.routers15.Var_1                 0                       (Unspecified)
system.ruby.network.routers15.Var_2                 0                       (Unspecified)
system.ruby.network.routers15.Var_3                 0                       (Unspecified)
system.ruby.network.routers15.all_counts            0                       (Unspecified)
system.ruby.network.routers15.buffer_reads       736593                       (Unspecified)
system.ruby.network.routers15.buffer_writes       736593                       (Unspecified)
system.ruby.network.routers15.crossbar_activity       736593                       (Unspecified)
system.ruby.network.routers15.detour_counts        53997                       (Unspecified)
system.ruby.network.routers15.regular_var            0                       (Unspecified)
system.ruby.network.routers15.risk_counts            0                       (Unspecified)
system.ruby.network.routers15.sw_input_arbiter_activity       742032                       (Unspecified)
system.ruby.network.routers15.sw_output_arbiter_activity       736593                       (Unspecified)

---------- End Simulation Statistics   ----------
