
---------- Begin Simulation Statistics ----------
simSeconds                                   0.006462                       # Number of seconds simulated (Second)
simTicks                                   6462432500                       # Number of ticks simulated (Tick)
finalTick                                  6462432500                       # Number of ticks from beginning of simulation (restored from checkpoints and never reset) (Tick)
simFreq                                  1000000000000                       # The number of ticks per simulated second ((Tick/Second))
hostSeconds                                   1204.68                       # Real time elapsed on the host (Second)
hostTickRate                                  5364441                       # The number of ticks simulated per host second (ticks/s) ((Tick/Second))
hostMemory                                   11458212                       # Number of bytes of host memory used (Byte)
simInsts                                     81849440                       # Number of instructions simulated (Count)
simOps                                      124823168                       # Number of ops (including micro ops) simulated (Count)
hostInstRate                                    67943                       # Simulator instruction rate (inst/s) ((Count/Second))
hostOpRate                                     103615                       # Simulator op (including micro ops) rate (op/s) ((Count/Second))
system.clk_domain.clock                          1000                       # Clock period in ticks (Tick)
system.cpu0.numCycles                        12896481                       # Number of cpu cycles simulated (Cycle)
system.cpu0.numWorkItemsStarted                     0                       # Number of work items this cpu started (Count)
system.cpu0.numWorkItemsCompleted                   0                       # Number of work items this cpu completed (Count)
system.cpu0.instsAdded                        8876766                       # Number of instructions added to the IQ (excludes non-spec) (Count)
system.cpu0.nonSpecInstsAdded                    1082                       # Number of non-speculative instructions added to the IQ (Count)
system.cpu0.instsIssued                       8501086                       # Number of instructions issued (Count)
system.cpu0.squashedInstsIssued                  2952                       # Number of squashed instructions issued (Count)
system.cpu0.squashedInstsExamined             1076400                       # Number of squashed instructions iterated over during squash; mainly for profiling (Count)
system.cpu0.squashedOperandsExamined          2332862                       # Number of squashed operands that are examined and possibly removed from graph (Count)
system.cpu0.squashedNonSpecRemoved                229                       # Number of squashed non-spec instructions that were removed (Count)
system.cpu0.numIssuedDist::samples           11646887                       # Number of insts issued each cycle (Count)
system.cpu0.numIssuedDist::mean              0.729902                       # Number of insts issued each cycle (Count)
system.cpu0.numIssuedDist::stdev             1.568280                       # Number of insts issued each cycle (Count)
system.cpu0.numIssuedDist::underflows               0      0.00%      0.00% # Number of insts issued each cycle (Count)
system.cpu0.numIssuedDist::0                  8721515     74.88%     74.88% # Number of insts issued each cycle (Count)
system.cpu0.numIssuedDist::1                   858827      7.37%     82.26% # Number of insts issued each cycle (Count)
system.cpu0.numIssuedDist::2                   664890      5.71%     87.97% # Number of insts issued each cycle (Count)
system.cpu0.numIssuedDist::3                   428201      3.68%     91.64% # Number of insts issued each cycle (Count)
system.cpu0.numIssuedDist::4                   398449      3.42%     95.06% # Number of insts issued each cycle (Count)
system.cpu0.numIssuedDist::5                   234628      2.01%     97.08% # Number of insts issued each cycle (Count)
system.cpu0.numIssuedDist::6                   192216      1.65%     98.73% # Number of insts issued each cycle (Count)
system.cpu0.numIssuedDist::7                    77644      0.67%     99.39% # Number of insts issued each cycle (Count)
system.cpu0.numIssuedDist::8                    70517      0.61%    100.00% # Number of insts issued each cycle (Count)
system.cpu0.numIssuedDist::overflows                0      0.00%    100.00% # Number of insts issued each cycle (Count)
system.cpu0.numIssuedDist::min_value                0                       # Number of insts issued each cycle (Count)
system.cpu0.numIssuedDist::max_value                8                       # Number of insts issued each cycle (Count)
system.cpu0.numIssuedDist::total             11646887                       # Number of insts issued each cycle (Count)
system.cpu0.statFuBusy::No_OpClass                  0      0.00%      0.00% # attempts to use FU when none available (Count)
system.cpu0.statFuBusy::IntAlu                  44230     48.49%     48.49% # attempts to use FU when none available (Count)
system.cpu0.statFuBusy::IntMult                     0      0.00%     48.49% # attempts to use FU when none available (Count)
system.cpu0.statFuBusy::IntDiv                      0      0.00%     48.49% # attempts to use FU when none available (Count)
system.cpu0.statFuBusy::FloatAdd                    0      0.00%     48.49% # attempts to use FU when none available (Count)
system.cpu0.statFuBusy::FloatCmp                    0      0.00%     48.49% # attempts to use FU when none available (Count)
system.cpu0.statFuBusy::FloatCvt                    1      0.00%     48.49% # attempts to use FU when none available (Count)
system.cpu0.statFuBusy::FloatMult                   0      0.00%     48.49% # attempts to use FU when none available (Count)
system.cpu0.statFuBusy::FloatMultAcc                0      0.00%     48.49% # attempts to use FU when none available (Count)
system.cpu0.statFuBusy::FloatDiv                    0      0.00%     48.49% # attempts to use FU when none available (Count)
system.cpu0.statFuBusy::FloatMisc                   0      0.00%     48.49% # attempts to use FU when none available (Count)
system.cpu0.statFuBusy::FloatSqrt                   0      0.00%     48.49% # attempts to use FU when none available (Count)
system.cpu0.statFuBusy::SimdAdd                     0      0.00%     48.49% # attempts to use FU when none available (Count)
system.cpu0.statFuBusy::SimdAddAcc                  0      0.00%     48.49% # attempts to use FU when none available (Count)
system.cpu0.statFuBusy::SimdAlu                   126      0.14%     48.63% # attempts to use FU when none available (Count)
system.cpu0.statFuBusy::SimdCmp                     0      0.00%     48.63% # attempts to use FU when none available (Count)
system.cpu0.statFuBusy::SimdCvt                   133      0.15%     48.78% # attempts to use FU when none available (Count)
system.cpu0.statFuBusy::SimdMisc                    0      0.00%     48.78% # attempts to use FU when none available (Count)
system.cpu0.statFuBusy::SimdMult                    0      0.00%     48.78% # attempts to use FU when none available (Count)
system.cpu0.statFuBusy::SimdMultAcc                 0      0.00%     48.78% # attempts to use FU when none available (Count)
system.cpu0.statFuBusy::SimdShift                 143      0.16%     48.93% # attempts to use FU when none available (Count)
system.cpu0.statFuBusy::SimdShiftAcc                0      0.00%     48.93% # attempts to use FU when none available (Count)
system.cpu0.statFuBusy::SimdDiv                     0      0.00%     48.93% # attempts to use FU when none available (Count)
system.cpu0.statFuBusy::SimdSqrt                    0      0.00%     48.93% # attempts to use FU when none available (Count)
system.cpu0.statFuBusy::SimdFloatAdd                0      0.00%     48.93% # attempts to use FU when none available (Count)
system.cpu0.statFuBusy::SimdFloatAlu                0      0.00%     48.93% # attempts to use FU when none available (Count)
system.cpu0.statFuBusy::SimdFloatCmp                0      0.00%     48.93% # attempts to use FU when none available (Count)
system.cpu0.statFuBusy::SimdFloatCvt                0      0.00%     48.93% # attempts to use FU when none available (Count)
system.cpu0.statFuBusy::SimdFloatDiv                0      0.00%     48.93% # attempts to use FU when none available (Count)
system.cpu0.statFuBusy::SimdFloatMisc               0      0.00%     48.93% # attempts to use FU when none available (Count)
system.cpu0.statFuBusy::SimdFloatMult               0      0.00%     48.93% # attempts to use FU when none available (Count)
system.cpu0.statFuBusy::SimdFloatMultAcc            0      0.00%     48.93% # attempts to use FU when none available (Count)
system.cpu0.statFuBusy::SimdFloatSqrt               0      0.00%     48.93% # attempts to use FU when none available (Count)
system.cpu0.statFuBusy::SimdReduceAdd               0      0.00%     48.93% # attempts to use FU when none available (Count)
system.cpu0.statFuBusy::SimdReduceAlu               0      0.00%     48.93% # attempts to use FU when none available (Count)
system.cpu0.statFuBusy::SimdReduceCmp               0      0.00%     48.93% # attempts to use FU when none available (Count)
system.cpu0.statFuBusy::SimdFloatReduceAdd            0      0.00%     48.93% # attempts to use FU when none available (Count)
system.cpu0.statFuBusy::SimdFloatReduceCmp            0      0.00%     48.93% # attempts to use FU when none available (Count)
system.cpu0.statFuBusy::SimdAes                     0      0.00%     48.93% # attempts to use FU when none available (Count)
system.cpu0.statFuBusy::SimdAesMix                  0      0.00%     48.93% # attempts to use FU when none available (Count)
system.cpu0.statFuBusy::SimdSha1Hash                0      0.00%     48.93% # attempts to use FU when none available (Count)
system.cpu0.statFuBusy::SimdSha1Hash2               0      0.00%     48.93% # attempts to use FU when none available (Count)
system.cpu0.statFuBusy::SimdSha256Hash              0      0.00%     48.93% # attempts to use FU when none available (Count)
system.cpu0.statFuBusy::SimdSha256Hash2             0      0.00%     48.93% # attempts to use FU when none available (Count)
system.cpu0.statFuBusy::SimdShaSigma2               0      0.00%     48.93% # attempts to use FU when none available (Count)
system.cpu0.statFuBusy::SimdShaSigma3               0      0.00%     48.93% # attempts to use FU when none available (Count)
system.cpu0.statFuBusy::SimdPredAlu                 0      0.00%     48.93% # attempts to use FU when none available (Count)
system.cpu0.statFuBusy::MemRead                 12209     13.39%     62.32% # attempts to use FU when none available (Count)
system.cpu0.statFuBusy::MemWrite                29635     32.49%     94.81% # attempts to use FU when none available (Count)
system.cpu0.statFuBusy::FloatMemRead             2601      2.85%     97.66% # attempts to use FU when none available (Count)
system.cpu0.statFuBusy::FloatMemWrite            2134      2.34%    100.00% # attempts to use FU when none available (Count)
system.cpu0.statFuBusy::IprAccess                   0      0.00%    100.00% # attempts to use FU when none available (Count)
system.cpu0.statFuBusy::InstPrefetch                0      0.00%    100.00% # attempts to use FU when none available (Count)
system.cpu0.statIssuedInstType_0::No_OpClass        18409      0.22%      0.22% # Number of instructions issued per FU type, per thread (Count)
system.cpu0.statIssuedInstType_0::IntAlu      5696535     67.01%     67.23% # Number of instructions issued per FU type, per thread (Count)
system.cpu0.statIssuedInstType_0::IntMult           34      0.00%     67.23% # Number of instructions issued per FU type, per thread (Count)
system.cpu0.statIssuedInstType_0::IntDiv        38318      0.45%     67.68% # Number of instructions issued per FU type, per thread (Count)
system.cpu0.statIssuedInstType_0::FloatAdd         4363      0.05%     67.73% # Number of instructions issued per FU type, per thread (Count)
system.cpu0.statIssuedInstType_0::FloatCmp            0      0.00%     67.73% # Number of instructions issued per FU type, per thread (Count)
system.cpu0.statIssuedInstType_0::FloatCvt         1662      0.02%     67.75% # Number of instructions issued per FU type, per thread (Count)
system.cpu0.statIssuedInstType_0::FloatMult            0      0.00%     67.75% # Number of instructions issued per FU type, per thread (Count)
system.cpu0.statIssuedInstType_0::FloatMultAcc            0      0.00%     67.75% # Number of instructions issued per FU type, per thread (Count)
system.cpu0.statIssuedInstType_0::FloatDiv            0      0.00%     67.75% # Number of instructions issued per FU type, per thread (Count)
system.cpu0.statIssuedInstType_0::FloatMisc            0      0.00%     67.75% # Number of instructions issued per FU type, per thread (Count)
system.cpu0.statIssuedInstType_0::FloatSqrt            0      0.00%     67.75% # Number of instructions issued per FU type, per thread (Count)
system.cpu0.statIssuedInstType_0::SimdAdd         8358      0.10%     67.85% # Number of instructions issued per FU type, per thread (Count)
system.cpu0.statIssuedInstType_0::SimdAddAcc            0      0.00%     67.85% # Number of instructions issued per FU type, per thread (Count)
system.cpu0.statIssuedInstType_0::SimdAlu        17000      0.20%     68.05% # Number of instructions issued per FU type, per thread (Count)
system.cpu0.statIssuedInstType_0::SimdCmp            0      0.00%     68.05% # Number of instructions issued per FU type, per thread (Count)
system.cpu0.statIssuedInstType_0::SimdCvt        18656      0.22%     68.27% # Number of instructions issued per FU type, per thread (Count)
system.cpu0.statIssuedInstType_0::SimdMisc         8817      0.10%     68.37% # Number of instructions issued per FU type, per thread (Count)
system.cpu0.statIssuedInstType_0::SimdMult            0      0.00%     68.37% # Number of instructions issued per FU type, per thread (Count)
system.cpu0.statIssuedInstType_0::SimdMultAcc            0      0.00%     68.37% # Number of instructions issued per FU type, per thread (Count)
system.cpu0.statIssuedInstType_0::SimdShift         2552      0.03%     68.40% # Number of instructions issued per FU type, per thread (Count)
system.cpu0.statIssuedInstType_0::SimdShiftAcc            0      0.00%     68.40% # Number of instructions issued per FU type, per thread (Count)
system.cpu0.statIssuedInstType_0::SimdDiv            0      0.00%     68.40% # Number of instructions issued per FU type, per thread (Count)
system.cpu0.statIssuedInstType_0::SimdSqrt            0      0.00%     68.40% # Number of instructions issued per FU type, per thread (Count)
system.cpu0.statIssuedInstType_0::SimdFloatAdd            0      0.00%     68.40% # Number of instructions issued per FU type, per thread (Count)
system.cpu0.statIssuedInstType_0::SimdFloatAlu            0      0.00%     68.40% # Number of instructions issued per FU type, per thread (Count)
system.cpu0.statIssuedInstType_0::SimdFloatCmp            0      0.00%     68.40% # Number of instructions issued per FU type, per thread (Count)
system.cpu0.statIssuedInstType_0::SimdFloatCvt            0      0.00%     68.40% # Number of instructions issued per FU type, per thread (Count)
system.cpu0.statIssuedInstType_0::SimdFloatDiv            0      0.00%     68.40% # Number of instructions issued per FU type, per thread (Count)
system.cpu0.statIssuedInstType_0::SimdFloatMisc            0      0.00%     68.40% # Number of instructions issued per FU type, per thread (Count)
system.cpu0.statIssuedInstType_0::SimdFloatMult            0      0.00%     68.40% # Number of instructions issued per FU type, per thread (Count)
system.cpu0.statIssuedInstType_0::SimdFloatMultAcc            0      0.00%     68.40% # Number of instructions issued per FU type, per thread (Count)
system.cpu0.statIssuedInstType_0::SimdFloatSqrt            0      0.00%     68.40% # Number of instructions issued per FU type, per thread (Count)
system.cpu0.statIssuedInstType_0::SimdReduceAdd            0      0.00%     68.40% # Number of instructions issued per FU type, per thread (Count)
system.cpu0.statIssuedInstType_0::SimdReduceAlu            0      0.00%     68.40% # Number of instructions issued per FU type, per thread (Count)
system.cpu0.statIssuedInstType_0::SimdReduceCmp            0      0.00%     68.40% # Number of instructions issued per FU type, per thread (Count)
system.cpu0.statIssuedInstType_0::SimdFloatReduceAdd            0      0.00%     68.40% # Number of instructions issued per FU type, per thread (Count)
system.cpu0.statIssuedInstType_0::SimdFloatReduceCmp            0      0.00%     68.40% # Number of instructions issued per FU type, per thread (Count)
system.cpu0.statIssuedInstType_0::SimdAes            0      0.00%     68.40% # Number of instructions issued per FU type, per thread (Count)
system.cpu0.statIssuedInstType_0::SimdAesMix            0      0.00%     68.40% # Number of instructions issued per FU type, per thread (Count)
system.cpu0.statIssuedInstType_0::SimdSha1Hash            0      0.00%     68.40% # Number of instructions issued per FU type, per thread (Count)
system.cpu0.statIssuedInstType_0::SimdSha1Hash2            0      0.00%     68.40% # Number of instructions issued per FU type, per thread (Count)
system.cpu0.statIssuedInstType_0::SimdSha256Hash            0      0.00%     68.40% # Number of instructions issued per FU type, per thread (Count)
system.cpu0.statIssuedInstType_0::SimdSha256Hash2            0      0.00%     68.40% # Number of instructions issued per FU type, per thread (Count)
system.cpu0.statIssuedInstType_0::SimdShaSigma2            0      0.00%     68.40% # Number of instructions issued per FU type, per thread (Count)
system.cpu0.statIssuedInstType_0::SimdShaSigma3            0      0.00%     68.40% # Number of instructions issued per FU type, per thread (Count)
system.cpu0.statIssuedInstType_0::SimdPredAlu            0      0.00%     68.40% # Number of instructions issued per FU type, per thread (Count)
system.cpu0.statIssuedInstType_0::MemRead       934945     11.00%     79.40% # Number of instructions issued per FU type, per thread (Count)
system.cpu0.statIssuedInstType_0::MemWrite       905666     10.65%     90.05% # Number of instructions issued per FU type, per thread (Count)
system.cpu0.statIssuedInstType_0::FloatMemRead       431751      5.08%     95.13% # Number of instructions issued per FU type, per thread (Count)
system.cpu0.statIssuedInstType_0::FloatMemWrite       414020      4.87%    100.00% # Number of instructions issued per FU type, per thread (Count)
system.cpu0.statIssuedInstType_0::IprAccess            0      0.00%    100.00% # Number of instructions issued per FU type, per thread (Count)
system.cpu0.statIssuedInstType_0::InstPrefetch            0      0.00%    100.00% # Number of instructions issued per FU type, per thread (Count)
system.cpu0.statIssuedInstType_0::total       8501086                       # Number of instructions issued per FU type, per thread (Count)
system.cpu0.issueRate                        0.659179                       # Inst issue rate ((Count/Cycle))
system.cpu0.fuBusy                              91212                       # FU busy when requested (Count)
system.cpu0.fuBusyRate                       0.010729                       # FU busy rate (busy events/executed inst) ((Count/Count))
system.cpu0.intInstQueueReads                26921085                       # Number of integer instruction queue reads (Count)
system.cpu0.intInstQueueWrites                8973636                       # Number of integer instruction queue writes (Count)
system.cpu0.intInstQueueWakeupAccesses        7531459                       # Number of integer instruction queue wakeup accesses (Count)
system.cpu0.fpInstQueueReads                  1822138                       # Number of floating instruction queue reads (Count)
system.cpu0.fpInstQueueWrites                  980842                       # Number of floating instruction queue writes (Count)
system.cpu0.fpInstQueueWakeupAccesses          902282                       # Number of floating instruction queue wakeup accesses (Count)
system.cpu0.vecInstQueueReads                       0                       # Number of vector instruction queue reads (Count)
system.cpu0.vecInstQueueWrites                      0                       # Number of vector instruction queue writes (Count)
system.cpu0.vecInstQueueWakeupAccesses              0                       # Number of vector instruction queue wakeup accesses (Count)
system.cpu0.intAluAccesses                    7660407                       # Number of integer alu accesses (Count)
system.cpu0.fpAluAccesses                      913482                       # Number of floating point alu accesses (Count)
system.cpu0.vecAluAccesses                          0                       # Number of vector alu accesses (Count)
system.cpu0.numInsts                          8468416                       # Number of executed instructions (Count)
system.cpu0.numLoadInsts                      1358827                       # Number of load instructions executed (Count)
system.cpu0.numSquashedInsts                    32670                       # Number of squashed instructions skipped in execute (Count)
system.cpu0.numSwp                                  0                       # Number of swp insts executed (Count)
system.cpu0.numNop                                  0                       # Number of nop insts executed (Count)
system.cpu0.numRefs                           2675442                       # Number of memory reference insts executed (Count)
system.cpu0.numBranches                        443980                       # Number of branches executed (Count)
system.cpu0.numStoreInsts                     1316615                       # Number of stores executed (Count)
system.cpu0.numRate                          0.656645                       # Inst execution rate ((Count/Cycle))
system.cpu0.timesIdled                           2403                       # Number of times that the entire CPU went into an idle state and unscheduled itself (Count)
system.cpu0.idleCycles                        1249594                       # Total number of cycles that the CPU has spent unscheduled due to idling (Cycle)
system.cpu0.committedInsts                    5115590                       # Number of Instructions Simulated (Count)
system.cpu0.committedOps                      7801448                       # Number of Ops (including micro ops) Simulated (Count)
system.cpu0.cpi                              2.521015                       # CPI: Cycles Per Instruction ((Cycle/Count))
system.cpu0.totalCpi                         2.521015                       # CPI: Total CPI of All Threads ((Cycle/Count))
system.cpu0.ipc                              0.396666                       # IPC: Instructions Per Cycle ((Count/Cycle))
system.cpu0.totalIpc                         0.396666                       # IPC: Total IPC of All Threads ((Count/Cycle))
system.cpu0.intRegfileReads                  11759440                       # Number of integer regfile reads (Count)
system.cpu0.intRegfileWrites                  5884709                       # Number of integer regfile writes (Count)
system.cpu0.fpRegfileReads                     545967                       # Number of floating regfile reads (Count)
system.cpu0.fpRegfileWrites                    479180                       # Number of floating regfile writes (Count)
system.cpu0.ccRegfileReads                    3249501                       # number of cc regfile reads (Count)
system.cpu0.ccRegfileWrites                   3465869                       # number of cc regfile writes (Count)
system.cpu0.miscRegfileReads                  3804831                       # number of misc regfile reads (Count)
system.cpu0.miscRegfileWrites                     846                       # number of misc regfile writes (Count)
system.cpu0.MemDepUnit__0.insertedLoads       1391053                       # Number of loads inserted to the mem dependence unit. (Count)
system.cpu0.MemDepUnit__0.insertedStores      1331947                       # Number of stores inserted to the mem dependence unit. (Count)
system.cpu0.MemDepUnit__0.conflictingLoads       162267                       # Number of conflicting loads. (Count)
system.cpu0.MemDepUnit__0.conflictingStores        14813                       # Number of conflicting stores. (Count)
system.cpu0.MemDepUnit__1.insertedLoads             0                       # Number of loads inserted to the mem dependence unit. (Count)
system.cpu0.MemDepUnit__1.insertedStores            0                       # Number of stores inserted to the mem dependence unit. (Count)
system.cpu0.MemDepUnit__1.conflictingLoads            0                       # Number of conflicting loads. (Count)
system.cpu0.MemDepUnit__1.conflictingStores            0                       # Number of conflicting stores. (Count)
system.cpu0.MemDepUnit__2.insertedLoads             0                       # Number of loads inserted to the mem dependence unit. (Count)
system.cpu0.MemDepUnit__2.insertedStores            0                       # Number of stores inserted to the mem dependence unit. (Count)
system.cpu0.MemDepUnit__2.conflictingLoads            0                       # Number of conflicting loads. (Count)
system.cpu0.MemDepUnit__2.conflictingStores            0                       # Number of conflicting stores. (Count)
system.cpu0.MemDepUnit__3.insertedLoads             0                       # Number of loads inserted to the mem dependence unit. (Count)
system.cpu0.MemDepUnit__3.insertedStores            0                       # Number of stores inserted to the mem dependence unit. (Count)
system.cpu0.MemDepUnit__3.conflictingLoads            0                       # Number of conflicting loads. (Count)
system.cpu0.MemDepUnit__3.conflictingStores            0                       # Number of conflicting stores. (Count)
system.cpu0.branchPred.lookups                 560813                       # Number of BP lookups (Count)
system.cpu0.branchPred.condPredicted           497022                       # Number of conditional branches predicted (Count)
system.cpu0.branchPred.condIncorrect            18235                       # Number of conditional branches incorrect (Count)
system.cpu0.branchPred.BTBLookups              313488                       # Number of BTB lookups (Count)
system.cpu0.branchPred.BTBUpdates                8730                       # Number of BTB updates (Count)
system.cpu0.branchPred.BTBHits                 309258                       # Number of BTB hits (Count)
system.cpu0.branchPred.BTBHitRatio           0.986507                       # BTB Hit Ratio (Ratio)
system.cpu0.branchPred.RASUsed                  14499                       # Number of times the RAS was used to get a target. (Count)
system.cpu0.branchPred.RASIncorrect                 8                       # Number of incorrect RAS predictions. (Count)
system.cpu0.branchPred.indirectLookups           9975                       # Number of indirect predictor lookups. (Count)
system.cpu0.branchPred.indirectHits              5189                       # Number of indirect target hits. (Count)
system.cpu0.branchPred.indirectMisses            4786                       # Number of indirect misses. (Count)
system.cpu0.branchPred.indirectMispredicted         1229                       # Number of mispredicted indirect branches. (Count)
system.cpu0.commit.commitSquashedInsts        1067540                       # The number of squashed insts skipped by commit (Count)
system.cpu0.commit.commitNonSpecStalls            853                       # The number of times commit has been forced to stall to communicate backwards (Count)
system.cpu0.commit.branchMispredicts            19601                       # The number of times a branch was mispredicted (Count)
system.cpu0.commit.numCommittedDist::samples     11492102                       # Number of insts commited each cycle (Count)
system.cpu0.commit.numCommittedDist::mean     0.678853                       # Number of insts commited each cycle (Count)
system.cpu0.commit.numCommittedDist::stdev     1.728365                       # Number of insts commited each cycle (Count)
system.cpu0.commit.numCommittedDist::underflows            0      0.00%      0.00% # Number of insts commited each cycle (Count)
system.cpu0.commit.numCommittedDist::0        8933253     77.73%     77.73% # Number of insts commited each cycle (Count)
system.cpu0.commit.numCommittedDist::1         977314      8.50%     86.24% # Number of insts commited each cycle (Count)
system.cpu0.commit.numCommittedDist::2         557288      4.85%     91.09% # Number of insts commited each cycle (Count)
system.cpu0.commit.numCommittedDist::3         290631      2.53%     93.62% # Number of insts commited each cycle (Count)
system.cpu0.commit.numCommittedDist::4          98963      0.86%     94.48% # Number of insts commited each cycle (Count)
system.cpu0.commit.numCommittedDist::5         183008      1.59%     96.07% # Number of insts commited each cycle (Count)
system.cpu0.commit.numCommittedDist::6          17765      0.15%     96.22% # Number of insts commited each cycle (Count)
system.cpu0.commit.numCommittedDist::7          50857      0.44%     96.67% # Number of insts commited each cycle (Count)
system.cpu0.commit.numCommittedDist::8         383023      3.33%    100.00% # Number of insts commited each cycle (Count)
system.cpu0.commit.numCommittedDist::overflows            0      0.00%    100.00% # Number of insts commited each cycle (Count)
system.cpu0.commit.numCommittedDist::min_value            0                       # Number of insts commited each cycle (Count)
system.cpu0.commit.numCommittedDist::max_value            8                       # Number of insts commited each cycle (Count)
system.cpu0.commit.numCommittedDist::total     11492102                       # Number of insts commited each cycle (Count)
system.cpu0.commit.instsCommitted             5115590                       # Number of instructions committed (Count)
system.cpu0.commit.opsCommitted               7801448                       # Number of ops (including micro ops) committed (Count)
system.cpu0.commit.memRefs                    2533632                       # Number of memory references committed (Count)
system.cpu0.commit.loads                      1243021                       # Number of loads committed (Count)
system.cpu0.commit.amos                             0                       # Number of atomic instructions committed (Count)
system.cpu0.commit.membars                          2                       # Number of memory barriers committed (Count)
system.cpu0.commit.branches                    407958                       # Number of branches committed (Count)
system.cpu0.commit.vectorInstructions               0                       # Number of committed Vector instructions. (Count)
system.cpu0.commit.floating                    872934                       # Number of committed floating point instructions. (Count)
system.cpu0.commit.integer                    7741801                       # Number of committed integer instructions. (Count)
system.cpu0.commit.functionCalls                10695                       # Number of function calls committed. (Count)
system.cpu0.commit.committedInstType_0::No_OpClass        10855      0.14%      0.14% # Class of committed instruction (Count)
system.cpu0.commit.committedInstType_0::IntAlu      5175655     66.34%     66.48% # Class of committed instruction (Count)
system.cpu0.commit.committedInstType_0::IntMult           29      0.00%     66.48% # Class of committed instruction (Count)
system.cpu0.commit.committedInstType_0::IntDiv        35972      0.46%     66.94% # Class of committed instruction (Count)
system.cpu0.commit.committedInstType_0::FloatAdd         3214      0.04%     66.98% # Class of committed instruction (Count)
system.cpu0.commit.committedInstType_0::FloatCmp            0      0.00%     66.98% # Class of committed instruction (Count)
system.cpu0.commit.committedInstType_0::FloatCvt         1504      0.02%     67.00% # Class of committed instruction (Count)
system.cpu0.commit.committedInstType_0::FloatMult            0      0.00%     67.00% # Class of committed instruction (Count)
system.cpu0.commit.committedInstType_0::FloatMultAcc            0      0.00%     67.00% # Class of committed instruction (Count)
system.cpu0.commit.committedInstType_0::FloatDiv            0      0.00%     67.00% # Class of committed instruction (Count)
system.cpu0.commit.committedInstType_0::FloatMisc            0      0.00%     67.00% # Class of committed instruction (Count)
system.cpu0.commit.committedInstType_0::FloatSqrt            0      0.00%     67.00% # Class of committed instruction (Count)
system.cpu0.commit.committedInstType_0::SimdAdd         6746      0.09%     67.09% # Class of committed instruction (Count)
system.cpu0.commit.committedInstType_0::SimdAddAcc            0      0.00%     67.09% # Class of committed instruction (Count)
system.cpu0.commit.committedInstType_0::SimdAlu        12083      0.15%     67.24% # Class of committed instruction (Count)
system.cpu0.commit.committedInstType_0::SimdCmp            0      0.00%     67.24% # Class of committed instruction (Count)
system.cpu0.commit.committedInstType_0::SimdCvt        13188      0.17%     67.41% # Class of committed instruction (Count)
system.cpu0.commit.committedInstType_0::SimdMisc         7204      0.09%     67.51% # Class of committed instruction (Count)
system.cpu0.commit.committedInstType_0::SimdMult            0      0.00%     67.51% # Class of committed instruction (Count)
system.cpu0.commit.committedInstType_0::SimdMultAcc            0      0.00%     67.51% # Class of committed instruction (Count)
system.cpu0.commit.committedInstType_0::SimdShift         1366      0.02%     67.52% # Class of committed instruction (Count)
system.cpu0.commit.committedInstType_0::SimdShiftAcc            0      0.00%     67.52% # Class of committed instruction (Count)
system.cpu0.commit.committedInstType_0::SimdDiv            0      0.00%     67.52% # Class of committed instruction (Count)
system.cpu0.commit.committedInstType_0::SimdSqrt            0      0.00%     67.52% # Class of committed instruction (Count)
system.cpu0.commit.committedInstType_0::SimdFloatAdd            0      0.00%     67.52% # Class of committed instruction (Count)
system.cpu0.commit.committedInstType_0::SimdFloatAlu            0      0.00%     67.52% # Class of committed instruction (Count)
system.cpu0.commit.committedInstType_0::SimdFloatCmp            0      0.00%     67.52% # Class of committed instruction (Count)
system.cpu0.commit.committedInstType_0::SimdFloatCvt            0      0.00%     67.52% # Class of committed instruction (Count)
system.cpu0.commit.committedInstType_0::SimdFloatDiv            0      0.00%     67.52% # Class of committed instruction (Count)
system.cpu0.commit.committedInstType_0::SimdFloatMisc            0      0.00%     67.52% # Class of committed instruction (Count)
system.cpu0.commit.committedInstType_0::SimdFloatMult            0      0.00%     67.52% # Class of committed instruction (Count)
system.cpu0.commit.committedInstType_0::SimdFloatMultAcc            0      0.00%     67.52% # Class of committed instruction (Count)
system.cpu0.commit.committedInstType_0::SimdFloatSqrt            0      0.00%     67.52% # Class of committed instruction (Count)
system.cpu0.commit.committedInstType_0::SimdReduceAdd            0      0.00%     67.52% # Class of committed instruction (Count)
system.cpu0.commit.committedInstType_0::SimdReduceAlu            0      0.00%     67.52% # Class of committed instruction (Count)
system.cpu0.commit.committedInstType_0::SimdReduceCmp            0      0.00%     67.52% # Class of committed instruction (Count)
system.cpu0.commit.committedInstType_0::SimdFloatReduceAdd            0      0.00%     67.52% # Class of committed instruction (Count)
system.cpu0.commit.committedInstType_0::SimdFloatReduceCmp            0      0.00%     67.52% # Class of committed instruction (Count)
system.cpu0.commit.committedInstType_0::SimdAes            0      0.00%     67.52% # Class of committed instruction (Count)
system.cpu0.commit.committedInstType_0::SimdAesMix            0      0.00%     67.52% # Class of committed instruction (Count)
system.cpu0.commit.committedInstType_0::SimdSha1Hash            0      0.00%     67.52% # Class of committed instruction (Count)
system.cpu0.commit.committedInstType_0::SimdSha1Hash2            0      0.00%     67.52% # Class of committed instruction (Count)
system.cpu0.commit.committedInstType_0::SimdSha256Hash            0      0.00%     67.52% # Class of committed instruction (Count)
system.cpu0.commit.committedInstType_0::SimdSha256Hash2            0      0.00%     67.52% # Class of committed instruction (Count)
system.cpu0.commit.committedInstType_0::SimdShaSigma2            0      0.00%     67.52% # Class of committed instruction (Count)
system.cpu0.commit.committedInstType_0::SimdShaSigma3            0      0.00%     67.52% # Class of committed instruction (Count)
system.cpu0.commit.committedInstType_0::SimdPredAlu            0      0.00%     67.52% # Class of committed instruction (Count)
system.cpu0.commit.committedInstType_0::MemRead       826046     10.59%     78.11% # Class of committed instruction (Count)
system.cpu0.commit.committedInstType_0::MemWrite       880869     11.29%     89.40% # Class of committed instruction (Count)
system.cpu0.commit.committedInstType_0::FloatMemRead       416975      5.34%     94.75% # Class of committed instruction (Count)
system.cpu0.commit.committedInstType_0::FloatMemWrite       409742      5.25%    100.00% # Class of committed instruction (Count)
system.cpu0.commit.committedInstType_0::IprAccess            0      0.00%    100.00% # Class of committed instruction (Count)
system.cpu0.commit.committedInstType_0::InstPrefetch            0      0.00%    100.00% # Class of committed instruction (Count)
system.cpu0.commit.committedInstType_0::total      7801448                       # Class of committed instruction (Count)
system.cpu0.commit.commitEligibleSamples       383023                       # number cycles where commit BW limit reached (Cycle)
system.cpu0.decode.idleCycles                  597196                       # Number of cycles decode is idle (Cycle)
system.cpu0.decode.blockedCycles              9783678                       # Number of cycles decode is blocked (Cycle)
system.cpu0.decode.runCycles                   819857                       # Number of cycles decode is running (Cycle)
system.cpu0.decode.unblockCycles               425752                       # Number of cycles decode is unblocking (Cycle)
system.cpu0.decode.squashCycles                 20404                       # Number of cycles decode is squashing (Cycle)
system.cpu0.decode.branchResolved              295332                       # Number of times decode resolved a branch (Count)
system.cpu0.decode.branchMispred                 1256                       # Number of times decode detected a branch misprediction (Count)
system.cpu0.decode.decodedInsts               9077043                       # Number of instructions handled by decode (Count)
system.cpu0.decode.squashedInsts                 5953                       # Number of squashed instructions handled by decode (Count)
system.cpu0.fetch.icacheStallCycles            812347                       # Number of cycles fetch is stalled on an Icache miss (Cycle)
system.cpu0.fetch.insts                       5992993                       # Number of instructions fetch has processed (Count)
system.cpu0.fetch.branches                     560813                       # Number of branches that fetch encountered (Count)
system.cpu0.fetch.predictedBranches            328946                       # Number of branches that fetch has predicted taken (Count)
system.cpu0.fetch.cycles                     10564966                       # Number of cycles fetch has run and was not squashing or blocked (Cycle)
system.cpu0.fetch.squashCycles                  43266                       # Number of cycles fetch has spent squashing (Cycle)
system.cpu0.fetch.miscStallCycles               12520                       # Number of cycles fetch has spent waiting on interrupts, or bad addresses, or out of MSHRs (Cycle)
system.cpu0.fetch.pendingTrapStallCycles        16893                       # Number of stall cycles due to pending traps (Cycle)
system.cpu0.fetch.icacheWaitRetryStallCycles       218528                       # Number of stall cycles due to full MSHR (Cycle)
system.cpu0.fetch.cacheLines                   605616                       # Number of cache lines fetched (Count)
system.cpu0.fetch.icacheSquashes                 4817                       # Number of outstanding Icache misses that were squashed (Count)
system.cpu0.fetch.nisnDist::samples          11646887                       # Number of instructions fetched each cycle (Total) (Count)
system.cpu0.fetch.nisnDist::mean             0.806607                       # Number of instructions fetched each cycle (Total) (Count)
system.cpu0.fetch.nisnDist::stdev            2.222789                       # Number of instructions fetched each cycle (Total) (Count)
system.cpu0.fetch.nisnDist::underflows              0      0.00%      0.00% # Number of instructions fetched each cycle (Total) (Count)
system.cpu0.fetch.nisnDist::0                10073063     86.49%     86.49% # Number of instructions fetched each cycle (Total) (Count)
system.cpu0.fetch.nisnDist::1                   76014      0.65%     87.14% # Number of instructions fetched each cycle (Total) (Count)
system.cpu0.fetch.nisnDist::2                  107755      0.93%     88.07% # Number of instructions fetched each cycle (Total) (Count)
system.cpu0.fetch.nisnDist::3                  135027      1.16%     89.22% # Number of instructions fetched each cycle (Total) (Count)
system.cpu0.fetch.nisnDist::4                  205111      1.76%     90.99% # Number of instructions fetched each cycle (Total) (Count)
system.cpu0.fetch.nisnDist::5                  102625      0.88%     91.87% # Number of instructions fetched each cycle (Total) (Count)
system.cpu0.fetch.nisnDist::6                   68388      0.59%     92.45% # Number of instructions fetched each cycle (Total) (Count)
system.cpu0.fetch.nisnDist::7                   77268      0.66%     93.12% # Number of instructions fetched each cycle (Total) (Count)
system.cpu0.fetch.nisnDist::8                  801636      6.88%    100.00% # Number of instructions fetched each cycle (Total) (Count)
system.cpu0.fetch.nisnDist::overflows               0      0.00%    100.00% # Number of instructions fetched each cycle (Total) (Count)
system.cpu0.fetch.nisnDist::min_value               0                       # Number of instructions fetched each cycle (Total) (Count)
system.cpu0.fetch.nisnDist::max_value               8                       # Number of instructions fetched each cycle (Total) (Count)
system.cpu0.fetch.nisnDist::total            11646887                       # Number of instructions fetched each cycle (Total) (Count)
system.cpu0.fetch.branchRate                 0.043486                       # Number of branch fetches per cycle (Ratio)
system.cpu0.fetch.rate                       0.464700                       # Number of inst fetches per cycle ((Count/Cycle))
system.cpu0.iew.idleCycles                          0                       # Number of cycles IEW is idle (Cycle)
system.cpu0.iew.squashCycles                    20404                       # Number of cycles IEW is squashing (Cycle)
system.cpu0.iew.blockCycles                   5415648                       # Number of cycles IEW is blocking (Cycle)
system.cpu0.iew.unblockCycles                  164593                       # Number of cycles IEW is unblocking (Cycle)
system.cpu0.iew.dispatchedInsts               8877848                       # Number of instructions dispatched to IQ (Count)
system.cpu0.iew.dispSquashedInsts                1085                       # Number of squashed instructions skipped by dispatch (Count)
system.cpu0.iew.dispLoadInsts                 1391053                       # Number of dispatched load instructions (Count)
system.cpu0.iew.dispStoreInsts                1331947                       # Number of dispatched store instructions (Count)
system.cpu0.iew.dispNonSpecInsts                  899                       # Number of dispatched non-speculative instructions (Count)
system.cpu0.iew.iqFullEvents                     7385                       # Number of times the IQ has become full, causing a stall (Count)
system.cpu0.iew.lsqFullEvents                  152074                       # Number of times the LSQ has become full, causing a stall (Count)
system.cpu0.iew.memOrderViolationEvents           239                       # Number of memory order violations (Count)
system.cpu0.iew.predictedTakenIncorrect          8909                       # Number of branches that were predicted taken incorrectly (Count)
system.cpu0.iew.predictedNotTakenIncorrect        12874                       # Number of branches that were predicted not taken incorrectly (Count)
system.cpu0.iew.branchMispredicts               21783                       # Number of branch mispredicts detected at execute (Count)
system.cpu0.iew.instsToCommit                 8445792                       # Cumulative count of insts sent to commit (Count)
system.cpu0.iew.writebackCount                8433741                       # Cumulative count of insts written-back (Count)
system.cpu0.iew.producerInst                  5487477                       # Number of instructions producing a value (Count)
system.cpu0.iew.consumerInst                 10314694                       # Number of instructions consuming a value (Count)
system.cpu0.iew.wbRate                       0.653957                       # Insts written-back per cycle ((Count/Cycle))
system.cpu0.iew.wbFanout                     0.532006                       # Average fanout of values written-back ((Count/Count))
system.cpu0.interrupts.clk_domain.clock          8000                       # Clock period in ticks (Tick)
system.cpu0.lsq0.forwLoads                     223102                       # Number of loads that had data forwarded from stores (Count)
system.cpu0.lsq0.squashedLoads                 148032                       # Number of loads squashed (Count)
system.cpu0.lsq0.ignoredResponses                  99                       # Number of memory responses ignored because the instruction is squashed (Count)
system.cpu0.lsq0.memOrderViolation                239                       # Number of memory ordering violations (Count)
system.cpu0.lsq0.squashedStores                 41336                       # Number of stores squashed (Count)
system.cpu0.lsq0.rescheduledLoads                2062                       # Number of loads that were rescheduled (Count)
system.cpu0.lsq0.blockedByCache                  2075                       # Number of times an access to memory failed due to the cache being blocked (Count)
system.cpu0.lsq0.loadToUse::samples           1242943                       # Distribution of cycle latency between the first time a load is issued and its completion (Unspecified)
system.cpu0.lsq0.loadToUse::mean            29.721589                       # Distribution of cycle latency between the first time a load is issued and its completion (Unspecified)
system.cpu0.lsq0.loadToUse::stdev          149.381401                       # Distribution of cycle latency between the first time a load is issued and its completion (Unspecified)
system.cpu0.lsq0.loadToUse::0-9               1195381     96.17%     96.17% # Distribution of cycle latency between the first time a load is issued and its completion (Unspecified)
system.cpu0.lsq0.loadToUse::10-19                 100      0.01%     96.18% # Distribution of cycle latency between the first time a load is issued and its completion (Unspecified)
system.cpu0.lsq0.loadToUse::20-29                2071      0.17%     96.35% # Distribution of cycle latency between the first time a load is issued and its completion (Unspecified)
system.cpu0.lsq0.loadToUse::30-39                  99      0.01%     96.36% # Distribution of cycle latency between the first time a load is issued and its completion (Unspecified)
system.cpu0.lsq0.loadToUse::40-49                  86      0.01%     96.36% # Distribution of cycle latency between the first time a load is issued and its completion (Unspecified)
system.cpu0.lsq0.loadToUse::50-59                 111      0.01%     96.37% # Distribution of cycle latency between the first time a load is issued and its completion (Unspecified)
system.cpu0.lsq0.loadToUse::60-69                  89      0.01%     96.38% # Distribution of cycle latency between the first time a load is issued and its completion (Unspecified)
system.cpu0.lsq0.loadToUse::70-79                  52      0.00%     96.38% # Distribution of cycle latency between the first time a load is issued and its completion (Unspecified)
system.cpu0.lsq0.loadToUse::80-89                  67      0.01%     96.39% # Distribution of cycle latency between the first time a load is issued and its completion (Unspecified)
system.cpu0.lsq0.loadToUse::90-99                  50      0.00%     96.39% # Distribution of cycle latency between the first time a load is issued and its completion (Unspecified)
system.cpu0.lsq0.loadToUse::100-109                59      0.00%     96.40% # Distribution of cycle latency between the first time a load is issued and its completion (Unspecified)
system.cpu0.lsq0.loadToUse::110-119                80      0.01%     96.40% # Distribution of cycle latency between the first time a load is issued and its completion (Unspecified)
system.cpu0.lsq0.loadToUse::120-129                74      0.01%     96.41% # Distribution of cycle latency between the first time a load is issued and its completion (Unspecified)
system.cpu0.lsq0.loadToUse::130-139                67      0.01%     96.42% # Distribution of cycle latency between the first time a load is issued and its completion (Unspecified)
system.cpu0.lsq0.loadToUse::140-149                85      0.01%     96.42% # Distribution of cycle latency between the first time a load is issued and its completion (Unspecified)
system.cpu0.lsq0.loadToUse::150-159                71      0.01%     96.43% # Distribution of cycle latency between the first time a load is issued and its completion (Unspecified)
system.cpu0.lsq0.loadToUse::160-169                50      0.00%     96.43% # Distribution of cycle latency between the first time a load is issued and its completion (Unspecified)
system.cpu0.lsq0.loadToUse::170-179               126      0.01%     96.44% # Distribution of cycle latency between the first time a load is issued and its completion (Unspecified)
system.cpu0.lsq0.loadToUse::180-189               592      0.05%     96.49% # Distribution of cycle latency between the first time a load is issued and its completion (Unspecified)
system.cpu0.lsq0.loadToUse::190-199                28      0.00%     96.49% # Distribution of cycle latency between the first time a load is issued and its completion (Unspecified)
system.cpu0.lsq0.loadToUse::200-209                38      0.00%     96.49% # Distribution of cycle latency between the first time a load is issued and its completion (Unspecified)
system.cpu0.lsq0.loadToUse::210-219                45      0.00%     96.50% # Distribution of cycle latency between the first time a load is issued and its completion (Unspecified)
system.cpu0.lsq0.loadToUse::220-229                80      0.01%     96.50% # Distribution of cycle latency between the first time a load is issued and its completion (Unspecified)
system.cpu0.lsq0.loadToUse::230-239               115      0.01%     96.51% # Distribution of cycle latency between the first time a load is issued and its completion (Unspecified)
system.cpu0.lsq0.loadToUse::240-249               557      0.04%     96.56% # Distribution of cycle latency between the first time a load is issued and its completion (Unspecified)
system.cpu0.lsq0.loadToUse::250-259                21      0.00%     96.56% # Distribution of cycle latency between the first time a load is issued and its completion (Unspecified)
system.cpu0.lsq0.loadToUse::260-269                25      0.00%     96.56% # Distribution of cycle latency between the first time a load is issued and its completion (Unspecified)
system.cpu0.lsq0.loadToUse::270-279                64      0.01%     96.57% # Distribution of cycle latency between the first time a load is issued and its completion (Unspecified)
system.cpu0.lsq0.loadToUse::280-289                80      0.01%     96.57% # Distribution of cycle latency between the first time a load is issued and its completion (Unspecified)
system.cpu0.lsq0.loadToUse::290-299               118      0.01%     96.58% # Distribution of cycle latency between the first time a load is issued and its completion (Unspecified)
system.cpu0.lsq0.loadToUse::overflows           42462      3.42%    100.00% # Distribution of cycle latency between the first time a load is issued and its completion (Unspecified)
system.cpu0.lsq0.loadToUse::min_value               2                       # Distribution of cycle latency between the first time a load is issued and its completion (Unspecified)
system.cpu0.lsq0.loadToUse::max_value            2503                       # Distribution of cycle latency between the first time a load is issued and its completion (Unspecified)
system.cpu0.lsq0.loadToUse::total             1242943                       # Distribution of cycle latency between the first time a load is issued and its completion (Unspecified)
system.cpu0.mmu.dtb.rdAccesses                1353250                       # TLB accesses on read requests (Count)
system.cpu0.mmu.dtb.wrAccesses                1316817                       # TLB accesses on write requests (Count)
system.cpu0.mmu.dtb.rdMisses                     3172                       # TLB misses on read requests (Count)
system.cpu0.mmu.dtb.wrMisses                      423                       # TLB misses on write requests (Count)
system.cpu0.mmu.dtb.walker.power_state.pwrStateResidencyTicks::UNDEFINED   6462432500                       # Cumulative time (in ticks) in various power states (Tick)
system.cpu0.mmu.itb.rdAccesses                      0                       # TLB accesses on read requests (Count)
system.cpu0.mmu.itb.wrAccesses                 608294                       # TLB accesses on write requests (Count)
system.cpu0.mmu.itb.rdMisses                        0                       # TLB misses on read requests (Count)
system.cpu0.mmu.itb.wrMisses                     3206                       # TLB misses on write requests (Count)
system.cpu0.mmu.itb.walker.power_state.pwrStateResidencyTicks::UNDEFINED   6462432500                       # Cumulative time (in ticks) in various power states (Tick)
system.cpu0.power_state.pwrStateResidencyTicks::ON   6462432500                       # Cumulative time (in ticks) in various power states (Tick)
system.cpu0.rename.squashCycles                 20404                       # Number of cycles rename is squashing (Cycle)
system.cpu0.rename.idleCycles                  771057                       # Number of cycles rename is idle (Cycle)
system.cpu0.rename.blockCycles                7180814                       # Number of cycles rename is blocking (Cycle)
system.cpu0.rename.serializeStallCycles         22947                       # count of cycles rename stalled for serializing inst (Cycle)
system.cpu0.rename.runCycles                  1062431                       # Number of cycles rename is running (Cycle)
system.cpu0.rename.unblockCycles              2589234                       # Number of cycles rename is unblocking (Cycle)
system.cpu0.rename.renamedInsts               8986949                       # Number of instructions processed by rename (Count)
system.cpu0.rename.ROBFullEvents               113053                       # Number of times rename has blocked due to ROB full (Count)
system.cpu0.rename.IQFullEvents                252272                       # Number of times rename has blocked due to IQ full (Count)
system.cpu0.rename.LQFullEvents                162242                       # Number of times rename has blocked due to LQ full (Count)
system.cpu0.rename.SQFullEvents               2127281                       # Number of times rename has blocked due to SQ full (Count)
system.cpu0.rename.fullRegistersEvents           3417                       # Number of times there has been no free registers (Count)
system.cpu0.rename.renamedOperands           17171998                       # Number of destination operands rename has renamed (Count)
system.cpu0.rename.lookups                   32757405                       # Number of register rename lookups that rename has made (Count)
system.cpu0.rename.intLookups                12718217                       # Number of integer rename lookups (Count)
system.cpu0.rename.fpLookups                   587399                       # Number of floating rename lookups (Count)
system.cpu0.rename.committedMaps             14759303                       # Number of HB maps that are committed (Count)
system.cpu0.rename.undoneMaps                 2412695                       # Number of HB maps that are undone due to squashing (Count)
system.cpu0.rename.serializing                    874                       # count of serializing insts renamed (Count)
system.cpu0.rename.tempSerializing                859                       # count of temporary serializing insts renamed (Count)
system.cpu0.rename.skidInsts                  2591098                       # count of insts added to the skid buffer (Count)
system.cpu0.rob.reads                        19970345                       # The number of ROB reads (Count)
system.cpu0.rob.writes                       17893013                       # The number of ROB writes (Count)
system.cpu0.thread_0.numInsts                 5115590                       # Number of Instructions committed (Count)
system.cpu0.thread_0.numOps                   7801448                       # Number of Ops committed (Count)
system.cpu0.thread_0.numMemRefs                     0                       # Number of Memory References (Count)
system.cpu0.workload.numSyscalls                   63                       # Number of system calls (Count)
system.cpu1.numCycles                        12455802                       # Number of cpu cycles simulated (Cycle)
system.cpu1.numWorkItemsStarted                     0                       # Number of work items this cpu started (Count)
system.cpu1.numWorkItemsCompleted                   0                       # Number of work items this cpu completed (Count)
system.cpu1.instsAdded                        8878697                       # Number of instructions added to the IQ (excludes non-spec) (Count)
system.cpu1.nonSpecInstsAdded                    1082                       # Number of non-speculative instructions added to the IQ (Count)
system.cpu1.instsIssued                       8502920                       # Number of instructions issued (Count)
system.cpu1.squashedInstsIssued                  2818                       # Number of squashed instructions issued (Count)
system.cpu1.squashedInstsExamined             1078331                       # Number of squashed instructions iterated over during squash; mainly for profiling (Count)
system.cpu1.squashedOperandsExamined          2334905                       # Number of squashed operands that are examined and possibly removed from graph (Count)
system.cpu1.squashedNonSpecRemoved                229                       # Number of squashed non-spec instructions that were removed (Count)
system.cpu1.numIssuedDist::samples           11276775                       # Number of insts issued each cycle (Count)
system.cpu1.numIssuedDist::mean              0.754021                       # Number of insts issued each cycle (Count)
system.cpu1.numIssuedDist::stdev             1.588252                       # Number of insts issued each cycle (Count)
system.cpu1.numIssuedDist::underflows               0      0.00%      0.00% # Number of insts issued each cycle (Count)
system.cpu1.numIssuedDist::0                  8350906     74.05%     74.05% # Number of insts issued each cycle (Count)
system.cpu1.numIssuedDist::1                   858752      7.62%     81.67% # Number of insts issued each cycle (Count)
system.cpu1.numIssuedDist::2                   665079      5.90%     87.57% # Number of insts issued each cycle (Count)
system.cpu1.numIssuedDist::3                   428324      3.80%     91.37% # Number of insts issued each cycle (Count)
system.cpu1.numIssuedDist::4                   398609      3.53%     94.90% # Number of insts issued each cycle (Count)
system.cpu1.numIssuedDist::5                   234671      2.08%     96.98% # Number of insts issued each cycle (Count)
system.cpu1.numIssuedDist::6                   192309      1.71%     98.69% # Number of insts issued each cycle (Count)
system.cpu1.numIssuedDist::7                    77607      0.69%     99.37% # Number of insts issued each cycle (Count)
system.cpu1.numIssuedDist::8                    70518      0.63%    100.00% # Number of insts issued each cycle (Count)
system.cpu1.numIssuedDist::overflows                0      0.00%    100.00% # Number of insts issued each cycle (Count)
system.cpu1.numIssuedDist::min_value                0                       # Number of insts issued each cycle (Count)
system.cpu1.numIssuedDist::max_value                8                       # Number of insts issued each cycle (Count)
system.cpu1.numIssuedDist::total             11276775                       # Number of insts issued each cycle (Count)
system.cpu1.statFuBusy::No_OpClass                  0      0.00%      0.00% # attempts to use FU when none available (Count)
system.cpu1.statFuBusy::IntAlu                  44130     48.44%     48.44% # attempts to use FU when none available (Count)
system.cpu1.statFuBusy::IntMult                     0      0.00%     48.44% # attempts to use FU when none available (Count)
system.cpu1.statFuBusy::IntDiv                      0      0.00%     48.44% # attempts to use FU when none available (Count)
system.cpu1.statFuBusy::FloatAdd                    0      0.00%     48.44% # attempts to use FU when none available (Count)
system.cpu1.statFuBusy::FloatCmp                    0      0.00%     48.44% # attempts to use FU when none available (Count)
system.cpu1.statFuBusy::FloatCvt                    0      0.00%     48.44% # attempts to use FU when none available (Count)
system.cpu1.statFuBusy::FloatMult                   0      0.00%     48.44% # attempts to use FU when none available (Count)
system.cpu1.statFuBusy::FloatMultAcc                0      0.00%     48.44% # attempts to use FU when none available (Count)
system.cpu1.statFuBusy::FloatDiv                    0      0.00%     48.44% # attempts to use FU when none available (Count)
system.cpu1.statFuBusy::FloatMisc                   0      0.00%     48.44% # attempts to use FU when none available (Count)
system.cpu1.statFuBusy::FloatSqrt                   0      0.00%     48.44% # attempts to use FU when none available (Count)
system.cpu1.statFuBusy::SimdAdd                     0      0.00%     48.44% # attempts to use FU when none available (Count)
system.cpu1.statFuBusy::SimdAddAcc                  0      0.00%     48.44% # attempts to use FU when none available (Count)
system.cpu1.statFuBusy::SimdAlu                   119      0.13%     48.57% # attempts to use FU when none available (Count)
system.cpu1.statFuBusy::SimdCmp                     0      0.00%     48.57% # attempts to use FU when none available (Count)
system.cpu1.statFuBusy::SimdCvt                   139      0.15%     48.72% # attempts to use FU when none available (Count)
system.cpu1.statFuBusy::SimdMisc                    0      0.00%     48.72% # attempts to use FU when none available (Count)
system.cpu1.statFuBusy::SimdMult                    0      0.00%     48.72% # attempts to use FU when none available (Count)
system.cpu1.statFuBusy::SimdMultAcc                 0      0.00%     48.72% # attempts to use FU when none available (Count)
system.cpu1.statFuBusy::SimdShift                 146      0.16%     48.88% # attempts to use FU when none available (Count)
system.cpu1.statFuBusy::SimdShiftAcc                0      0.00%     48.88% # attempts to use FU when none available (Count)
system.cpu1.statFuBusy::SimdDiv                     0      0.00%     48.88% # attempts to use FU when none available (Count)
system.cpu1.statFuBusy::SimdSqrt                    0      0.00%     48.88% # attempts to use FU when none available (Count)
system.cpu1.statFuBusy::SimdFloatAdd                0      0.00%     48.88% # attempts to use FU when none available (Count)
system.cpu1.statFuBusy::SimdFloatAlu                0      0.00%     48.88% # attempts to use FU when none available (Count)
system.cpu1.statFuBusy::SimdFloatCmp                0      0.00%     48.88% # attempts to use FU when none available (Count)
system.cpu1.statFuBusy::SimdFloatCvt                0      0.00%     48.88% # attempts to use FU when none available (Count)
system.cpu1.statFuBusy::SimdFloatDiv                0      0.00%     48.88% # attempts to use FU when none available (Count)
system.cpu1.statFuBusy::SimdFloatMisc               0      0.00%     48.88% # attempts to use FU when none available (Count)
system.cpu1.statFuBusy::SimdFloatMult               0      0.00%     48.88% # attempts to use FU when none available (Count)
system.cpu1.statFuBusy::SimdFloatMultAcc            0      0.00%     48.88% # attempts to use FU when none available (Count)
system.cpu1.statFuBusy::SimdFloatSqrt               0      0.00%     48.88% # attempts to use FU when none available (Count)
system.cpu1.statFuBusy::SimdReduceAdd               0      0.00%     48.88% # attempts to use FU when none available (Count)
system.cpu1.statFuBusy::SimdReduceAlu               0      0.00%     48.88% # attempts to use FU when none available (Count)
system.cpu1.statFuBusy::SimdReduceCmp               0      0.00%     48.88% # attempts to use FU when none available (Count)
system.cpu1.statFuBusy::SimdFloatReduceAdd            0      0.00%     48.88% # attempts to use FU when none available (Count)
system.cpu1.statFuBusy::SimdFloatReduceCmp            0      0.00%     48.88% # attempts to use FU when none available (Count)
system.cpu1.statFuBusy::SimdAes                     0      0.00%     48.88% # attempts to use FU when none available (Count)
system.cpu1.statFuBusy::SimdAesMix                  0      0.00%     48.88% # attempts to use FU when none available (Count)
system.cpu1.statFuBusy::SimdSha1Hash                0      0.00%     48.88% # attempts to use FU when none available (Count)
system.cpu1.statFuBusy::SimdSha1Hash2               0      0.00%     48.88% # attempts to use FU when none available (Count)
system.cpu1.statFuBusy::SimdSha256Hash              0      0.00%     48.88% # attempts to use FU when none available (Count)
system.cpu1.statFuBusy::SimdSha256Hash2             0      0.00%     48.88% # attempts to use FU when none available (Count)
system.cpu1.statFuBusy::SimdShaSigma2               0      0.00%     48.88% # attempts to use FU when none available (Count)
system.cpu1.statFuBusy::SimdShaSigma3               0      0.00%     48.88% # attempts to use FU when none available (Count)
system.cpu1.statFuBusy::SimdPredAlu                 0      0.00%     48.88% # attempts to use FU when none available (Count)
system.cpu1.statFuBusy::MemRead                 12211     13.40%     62.28% # attempts to use FU when none available (Count)
system.cpu1.statFuBusy::MemWrite                29631     32.52%     94.80% # attempts to use FU when none available (Count)
system.cpu1.statFuBusy::FloatMemRead             2608      2.86%     97.67% # attempts to use FU when none available (Count)
system.cpu1.statFuBusy::FloatMemWrite            2127      2.33%    100.00% # attempts to use FU when none available (Count)
system.cpu1.statFuBusy::IprAccess                   0      0.00%    100.00% # attempts to use FU when none available (Count)
system.cpu1.statFuBusy::InstPrefetch                0      0.00%    100.00% # attempts to use FU when none available (Count)
system.cpu1.statIssuedInstType_0::No_OpClass        18317      0.22%      0.22% # Number of instructions issued per FU type, per thread (Count)
system.cpu1.statIssuedInstType_0::IntAlu      5698082     67.01%     67.23% # Number of instructions issued per FU type, per thread (Count)
system.cpu1.statIssuedInstType_0::IntMult           37      0.00%     67.23% # Number of instructions issued per FU type, per thread (Count)
system.cpu1.statIssuedInstType_0::IntDiv        38320      0.45%     67.68% # Number of instructions issued per FU type, per thread (Count)
system.cpu1.statIssuedInstType_0::FloatAdd         4360      0.05%     67.73% # Number of instructions issued per FU type, per thread (Count)
system.cpu1.statIssuedInstType_0::FloatCmp            0      0.00%     67.73% # Number of instructions issued per FU type, per thread (Count)
system.cpu1.statIssuedInstType_0::FloatCvt         1660      0.02%     67.75% # Number of instructions issued per FU type, per thread (Count)
system.cpu1.statIssuedInstType_0::FloatMult            0      0.00%     67.75% # Number of instructions issued per FU type, per thread (Count)
system.cpu1.statIssuedInstType_0::FloatMultAcc            0      0.00%     67.75% # Number of instructions issued per FU type, per thread (Count)
system.cpu1.statIssuedInstType_0::FloatDiv            0      0.00%     67.75% # Number of instructions issued per FU type, per thread (Count)
system.cpu1.statIssuedInstType_0::FloatMisc            0      0.00%     67.75% # Number of instructions issued per FU type, per thread (Count)
system.cpu1.statIssuedInstType_0::FloatSqrt            0      0.00%     67.75% # Number of instructions issued per FU type, per thread (Count)
system.cpu1.statIssuedInstType_0::SimdAdd         8351      0.10%     67.85% # Number of instructions issued per FU type, per thread (Count)
system.cpu1.statIssuedInstType_0::SimdAddAcc            0      0.00%     67.85% # Number of instructions issued per FU type, per thread (Count)
system.cpu1.statIssuedInstType_0::SimdAlu        16984      0.20%     68.05% # Number of instructions issued per FU type, per thread (Count)
system.cpu1.statIssuedInstType_0::SimdCmp            0      0.00%     68.05% # Number of instructions issued per FU type, per thread (Count)
system.cpu1.statIssuedInstType_0::SimdCvt        18654      0.22%     68.27% # Number of instructions issued per FU type, per thread (Count)
system.cpu1.statIssuedInstType_0::SimdMisc         8813      0.10%     68.37% # Number of instructions issued per FU type, per thread (Count)
system.cpu1.statIssuedInstType_0::SimdMult            0      0.00%     68.37% # Number of instructions issued per FU type, per thread (Count)
system.cpu1.statIssuedInstType_0::SimdMultAcc            0      0.00%     68.37% # Number of instructions issued per FU type, per thread (Count)
system.cpu1.statIssuedInstType_0::SimdShift         2555      0.03%     68.40% # Number of instructions issued per FU type, per thread (Count)
system.cpu1.statIssuedInstType_0::SimdShiftAcc            0      0.00%     68.40% # Number of instructions issued per FU type, per thread (Count)
system.cpu1.statIssuedInstType_0::SimdDiv            0      0.00%     68.40% # Number of instructions issued per FU type, per thread (Count)
system.cpu1.statIssuedInstType_0::SimdSqrt            0      0.00%     68.40% # Number of instructions issued per FU type, per thread (Count)
system.cpu1.statIssuedInstType_0::SimdFloatAdd            0      0.00%     68.40% # Number of instructions issued per FU type, per thread (Count)
system.cpu1.statIssuedInstType_0::SimdFloatAlu            0      0.00%     68.40% # Number of instructions issued per FU type, per thread (Count)
system.cpu1.statIssuedInstType_0::SimdFloatCmp            0      0.00%     68.40% # Number of instructions issued per FU type, per thread (Count)
system.cpu1.statIssuedInstType_0::SimdFloatCvt            0      0.00%     68.40% # Number of instructions issued per FU type, per thread (Count)
system.cpu1.statIssuedInstType_0::SimdFloatDiv            0      0.00%     68.40% # Number of instructions issued per FU type, per thread (Count)
system.cpu1.statIssuedInstType_0::SimdFloatMisc            0      0.00%     68.40% # Number of instructions issued per FU type, per thread (Count)
system.cpu1.statIssuedInstType_0::SimdFloatMult            0      0.00%     68.40% # Number of instructions issued per FU type, per thread (Count)
system.cpu1.statIssuedInstType_0::SimdFloatMultAcc            0      0.00%     68.40% # Number of instructions issued per FU type, per thread (Count)
system.cpu1.statIssuedInstType_0::SimdFloatSqrt            0      0.00%     68.40% # Number of instructions issued per FU type, per thread (Count)
system.cpu1.statIssuedInstType_0::SimdReduceAdd            0      0.00%     68.40% # Number of instructions issued per FU type, per thread (Count)
system.cpu1.statIssuedInstType_0::SimdReduceAlu            0      0.00%     68.40% # Number of instructions issued per FU type, per thread (Count)
system.cpu1.statIssuedInstType_0::SimdReduceCmp            0      0.00%     68.40% # Number of instructions issued per FU type, per thread (Count)
system.cpu1.statIssuedInstType_0::SimdFloatReduceAdd            0      0.00%     68.40% # Number of instructions issued per FU type, per thread (Count)
system.cpu1.statIssuedInstType_0::SimdFloatReduceCmp            0      0.00%     68.40% # Number of instructions issued per FU type, per thread (Count)
system.cpu1.statIssuedInstType_0::SimdAes            0      0.00%     68.40% # Number of instructions issued per FU type, per thread (Count)
system.cpu1.statIssuedInstType_0::SimdAesMix            0      0.00%     68.40% # Number of instructions issued per FU type, per thread (Count)
system.cpu1.statIssuedInstType_0::SimdSha1Hash            0      0.00%     68.40% # Number of instructions issued per FU type, per thread (Count)
system.cpu1.statIssuedInstType_0::SimdSha1Hash2            0      0.00%     68.40% # Number of instructions issued per FU type, per thread (Count)
system.cpu1.statIssuedInstType_0::SimdSha256Hash            0      0.00%     68.40% # Number of instructions issued per FU type, per thread (Count)
system.cpu1.statIssuedInstType_0::SimdSha256Hash2            0      0.00%     68.40% # Number of instructions issued per FU type, per thread (Count)
system.cpu1.statIssuedInstType_0::SimdShaSigma2            0      0.00%     68.40% # Number of instructions issued per FU type, per thread (Count)
system.cpu1.statIssuedInstType_0::SimdShaSigma3            0      0.00%     68.40% # Number of instructions issued per FU type, per thread (Count)
system.cpu1.statIssuedInstType_0::SimdPredAlu            0      0.00%     68.40% # Number of instructions issued per FU type, per thread (Count)
system.cpu1.statIssuedInstType_0::MemRead       935293     11.00%     79.40% # Number of instructions issued per FU type, per thread (Count)
system.cpu1.statIssuedInstType_0::MemWrite       905755     10.65%     90.05% # Number of instructions issued per FU type, per thread (Count)
system.cpu1.statIssuedInstType_0::FloatMemRead       431734      5.08%     95.13% # Number of instructions issued per FU type, per thread (Count)
system.cpu1.statIssuedInstType_0::FloatMemWrite       414005      4.87%    100.00% # Number of instructions issued per FU type, per thread (Count)
system.cpu1.statIssuedInstType_0::IprAccess            0      0.00%    100.00% # Number of instructions issued per FU type, per thread (Count)
system.cpu1.statIssuedInstType_0::InstPrefetch            0      0.00%    100.00% # Number of instructions issued per FU type, per thread (Count)
system.cpu1.statIssuedInstType_0::total       8502920                       # Number of instructions issued per FU type, per thread (Count)
system.cpu1.issueRate                        0.682647                       # Inst issue rate ((Count/Cycle))
system.cpu1.fuBusy                              91111                       # FU busy when requested (Count)
system.cpu1.fuBusyRate                       0.010715                       # FU busy rate (busy events/executed inst) ((Count/Count))
system.cpu1.intInstQueueReads                26554544                       # Number of integer instruction queue reads (Count)
system.cpu1.intInstQueueWrites                8977502                       # Number of integer instruction queue writes (Count)
system.cpu1.intInstQueueWakeupAccesses        7533269                       # Number of integer instruction queue wakeup accesses (Count)
system.cpu1.fpInstQueueReads                  1822000                       # Number of floating instruction queue reads (Count)
system.cpu1.fpInstQueueWrites                  980842                       # Number of floating instruction queue writes (Count)
system.cpu1.fpInstQueueWakeupAccesses          902238                       # Number of floating instruction queue wakeup accesses (Count)
system.cpu1.vecInstQueueReads                       0                       # Number of vector instruction queue reads (Count)
system.cpu1.vecInstQueueWrites                      0                       # Number of vector instruction queue writes (Count)
system.cpu1.vecInstQueueWakeupAccesses              0                       # Number of vector instruction queue wakeup accesses (Count)
system.cpu1.intAluAccesses                    7662300                       # Number of integer alu accesses (Count)
system.cpu1.fpAluAccesses                      913414                       # Number of floating point alu accesses (Count)
system.cpu1.vecAluAccesses                          0                       # Number of vector alu accesses (Count)
system.cpu1.numInsts                          8470190                       # Number of executed instructions (Count)
system.cpu1.numLoadInsts                      1359203                       # Number of load instructions executed (Count)
system.cpu1.numSquashedInsts                    32730                       # Number of squashed instructions skipped in execute (Count)
system.cpu1.numSwp                                  0                       # Number of swp insts executed (Count)
system.cpu1.numNop                                  0                       # Number of nop insts executed (Count)
system.cpu1.numRefs                           2675870                       # Number of memory reference insts executed (Count)
system.cpu1.numBranches                        444142                       # Number of branches executed (Count)
[...]
system.ruby.network.ext_out_link_utilization      4221025                       (Unspecified)
system.ruby.network.flit_network_latency |105781662000                       |209744386500                       | 28996777500                       (Unspecified)
system.ruby.network.flit_queueing_latency |  2173807000                       |  1994945000                       |   148819500                       (Unspecified)
system.ruby.network.flits_injected       |     1000458     23.70%     23.70% |     2922928     69.25%     92.95% |      297640      7.05%    100.00% (Unspecified)
system.ruby.network.flits_injected::total      4221026                       (Unspecified)
system.ruby.network.flits_received       |     1000458     23.70%     23.70% |     2922928     69.25%     92.95% |      297639      7.05%    100.00% (Unspecified)
system.ruby.network.flits_received::total      4221025                       (Unspecified)
system.ruby.network.int_link_utilization     12783219                       (Unspecified)
system.ruby.network.packet_network_latency | 79370877000                       | 69352507500                       | 28996777500                       (Unspecified)
system.ruby.network.packet_queueing_latency |  1781733000                       |   532001000                       |   148819500                       (Unspecified)
system.ruby.network.packets_injected     |      816214     42.29%     42.29% |      816212     42.29%     84.58% |      297640     15.42%    100.00% (Unspecified)
system.ruby.network.packets_injected::total      1930066                       (Unspecified)
system.ruby.network.packets_received     |      816214     42.29%     42.29% |      816212     42.29%     84.58% |      297639     15.42%    100.00% (Unspecified)
system.ruby.network.packets_received::total      1930065                       (Unspecified)
system.ruby.network.routers00.Var_1                 0                       (Unspecified)
system.ruby.network.routers00.Var_2                 0                       (Unspecified)
system.ruby.network.routers00.Var_3                 0                       (Unspecified)
system.ruby.network.routers00.all_counts            0                       (Unspecified)
system.ruby.network.routers00.buffer_reads       755355                       (Unspecified)
system.ruby.network.routers00.buffer_writes       755355                       (Unspecified)
system.ruby.network.routers00.crossbar_activity       755355                       (Unspecified)
system.ruby.network.routers00.detour_counts        53792                       (Unspecified)
system.ruby.network.routers00.regular_var            0                       (Unspecified)
system.ruby.network.routers00.risk_counts            0                       (Unspecified)
system.ruby.network.routers00.sw_input_arbiter_activity       760968                       (Unspecified)
system.ruby.network.routers00.sw_output_arbiter_activity       755355                       (Unspecified)
system.ruby.network.routers01.Var_1                 0                       (Unspecified)
system.ruby.network.routers01.Var_2                 0                       (Unspecified)
system.ruby.network.routers01.Var_3                 0                       (Unspecified)
system.ruby.network.routers01.all_counts            0                       (Unspecified)
system.ruby.network.routers01.buffer_reads      1083049                       (Unspecified)
system.ruby.network.routers01.buffer_writes      1083049                       (Unspecified)
system.ruby.network.routers01.crossbar_activity      1083049                       (Unspecified)
system.ruby.network.routers01.detour_counts        54009                       (Unspecified)
system.ruby.network.routers01.regular_var            0                       (Unspecified)
system.ruby.network.routers01.risk_counts            0                       (Unspecified)
system.ruby.network.routers01.sw_input_arbiter_activity      1095471                       (Unspecified)
system.ruby.network.routers01.sw_output_arbiter_activity      1083049                       (Unspecified)
system.ruby.network.routers02.Var_1                 0                       (Unspecified)
system.ruby.network.routers02.Var_2                 0                       (Unspecified)
system.ruby.network.routers02.Var_3                 0                       (Unspecified)
system.ruby.network.routers02.all_counts            0                       (Unspecified)
system.ruby.network.routers02.buffer_reads      1085711                       (Unspecified)
system.ruby.network.routers02.buffer_writes      1085711                       (Unspecified)
system.ruby.network.routers02.crossbar_activity      1085711                       (Unspecified)
system.ruby.network.routers02.detour_counts        53852                       (Unspecified)
system.ruby.network.routers02.regular_var            0                       (Unspecified)
system.ruby.network.routers02.risk_counts            0                       (Unspecified)
system.ruby.network.routers02.sw_input_arbiter_activity      1097986                       (Unspecified)
system.ruby.network.routers02.sw_output_arbiter_activity      1085711                       (Unspecified)
system.ruby.network.routers03.Var_1                 0                       (Unspecified)
system.ruby.network.routers03.Var_2                 0                       (Unspecified)
system.ruby.network.routers03.Var_3                 0                       (Unspecified)
system.ruby.network.routers03.all_counts            0                       (Unspecified)
system.ruby.network.routers03.buffer_reads       745812                       (Unspecified)
system.ruby.network.routers03.buffer_writes       745812                       (Unspecified)
system.ruby.network.routers03.crossbar_activity       745812                       (Unspecified)
system.ruby.network.routers03.detour_counts        53885                       (Unspecified)
system.ruby.network.routers03.regular_var            0                       (Unspecified)
system.ruby.network.routers03.risk_counts            0                       (Unspecified)
system.ruby.network.routers03.sw_input_arbiter_activity       751102                       (Unspecified)
system.ruby.network.routers03.sw_output_arbiter_activity       745812                       (Unspecified)
system.ruby.network.routers04.Var_1                 0                       (Unspecified)
system.ruby.network.routers04.Var_2                 0                       (Unspecified)
system.ruby.network.routers04.Var_3                 0                       (Unspecified)
system.ruby.network.routers04.all_counts            0                       (Unspecified)
system.ruby.network.routers04.buffer_reads      1054745                       (Unspecified)
system.ruby.network.routers04.buffer_writes      1054745                       (Unspecified)
system.ruby.network.routers04.crossbar_activity      1054745                       (Unspecified)
system.ruby.network.routers04.detour_counts        53914                       (Unspecified)
system.ruby.network.routers04.regular_var            0                       (Unspecified)
system.ruby.network.routers04.risk_counts            0                       (Unspecified)
system.ruby.network.routers04.sw_input_arbiter_activity      1066153                       (Unspecified)
system.ruby.network.routers04.sw_output_arbiter_activity      1054745                       (Unspecified)
system.ruby.network.routers05.Var_1                 0                       (Unspecified)
system.ruby.network.routers05.Var_2                 0                       (Unspecified)
system.ruby.network.routers05.Var_3                 0                       (Unspecified)
system.ruby.network.routers05.all_counts            0                       (Unspecified)
system.ruby.network.routers05.buffer_reads      1380805                       (Unspecified)
system.ruby.network.routers05.buffer_writes      1380805                       (Unspecified)
system.ruby.network.routers05.crossbar_activity      1380805                       (Unspecified)
system.ruby.network.routers05.detour_counts        53923                       (Unspecified)
system.ruby.network.routers05.regular_var            0                       (Unspecified)
system.ruby.network.routers05.risk_counts            0                       (Unspecified)
system.ruby.network.routers05.sw_input_arbiter_activity      1399304                       (Unspecified)
system.ruby.network.routers05.sw_output_arbiter_activity      1380805                       (Unspecified)
system.ruby.network.routers06.Var_1                 0                       (Unspecified)
system.ruby.network.routers06.Var_2                 0                       (Unspecified)
system.ruby.network.routers06.Var_3                 0                       (Unspecified)
system.ruby.network.routers06.all_counts            0                       (Unspecified)
system.ruby.network.routers06.buffer_reads      1382348                       (Unspecified)
system.ruby.network.routers06.buffer_writes      1382348                       (Unspecified)
system.ruby.network.routers06.crossbar_activity      1382348                       (Unspecified)
system.ruby.network.routers06.detour_counts        53873                       (Unspecified)
system.ruby.network.routers06.regular_var            0                       (Unspecified)
system.ruby.network.routers06.risk_counts            0                       (Unspecified)
system.ruby.network.routers06.sw_input_arbiter_activity      1400778                       (Unspecified)
system.ruby.network.routers06.sw_output_arbiter_activity      1382348                       (Unspecified)
system.ruby.network.routers07.Var_1                 0                       (Unspecified)
system.ruby.network.routers07.Var_2                 0                       (Unspecified)
system.ruby.network.routers07.Var_3                 0                       (Unspecified)
system.ruby.network.routers07.all_counts            0                       (Unspecified)
system.ruby.network.routers07.buffer_reads      1042632                       (Unspecified)
system.ruby.network.routers07.buffer_writes      1042632                       (Unspecified)
system.ruby.network.routers07.crossbar_activity      1042632                       (Unspecified)
system.ruby.network.routers07.detour_counts        54038                       (Unspecified)
system.ruby.network.routers07.regular_var            0                       (Unspecified)
system.ruby.network.routers07.risk_counts            0                       (Unspecified)
system.ruby.network.routers07.sw_input_arbiter_activity      1053843                       (Unspecified)
system.ruby.network.routers07.sw_output_arbiter_activity      1042632                       (Unspecified)
system.ruby.network.routers08.Var_1                 0                       (Unspecified)
system.ruby.network.routers08.Var_2                 0                       (Unspecified)
system.ruby.network.routers08.Var_3                 0                       (Unspecified)
system.ruby.network.routers08.all_counts            0                       (Unspecified)
system.ruby.network.routers08.buffer_reads      1051604                       (Unspecified)
system.ruby.network.routers08.buffer_writes      1051604                       (Unspecified)
system.ruby.network.routers08.crossbar_activity      1051604                       (Unspecified)
system.ruby.network.routers08.detour_counts        53889                       (Unspecified)
system.ruby.network.routers08.regular_var            0                       (Unspecified)
system.ruby.network.routers08.risk_counts            0                       (Unspecified)
system.ruby.network.routers08.sw_input_arbiter_activity      1063107                       (Unspecified)
system.ruby.network.routers08.sw_output_arbiter_activity      1051604                       (Unspecified)
system.ruby.network.routers09.Var_1                 0                       (Unspecified)
system.ruby.network.routers09.Var_2                 0                       (Unspecified)
system.ruby.network.routers09.Var_3                 0                       (Unspecified)
system.ruby.network.routers09.all_counts            0                       (Unspecified)
system.ruby.network.routers09.buffer_reads      1380387                       (Unspecified)
system.ruby.network.routers09.buffer_writes      1380387                       (Unspecified)
system.ruby.network.routers09.crossbar_activity      1380387                       (Unspecified)
system.ruby.network.routers09.detour_counts        53795                       (Unspecified)
system.ruby.network.routers09.regular_var            0                       (Unspecified)
system.ruby.network.routers09.risk_counts            0                       (Unspecified)
system.ruby.network.routers09.sw_input_arbiter_activity      1398564                       (Unspecified)
system.ruby.network.routers09.sw_output_arbiter_activity      1380387                       (Unspecified)
system.ruby.network.routers10.Var_1                 0                       (Unspecified)
system.ruby.network.routers10.Var_2                 0                       (Unspecified)
system.ruby.network.routers10.Var_3                 0                       (Unspecified)
system.ruby.network.routers10.all_counts            0                       (Unspecified)
system.ruby.network.routers10.buffer_reads      1378280                       (Unspecified)
system.ruby.network.routers10.buffer_writes      1378280                       (Unspecified)
system.ruby.network.routers10.crossbar_activity      1378280                       (Unspecified)
system.ruby.network.routers10.detour_counts        53856                       (Unspecified)
system.ruby.network.routers10.regular_var            0                       (Unspecified)
system.ruby.network.routers10.risk_counts            0                       (Unspecified)
system.ruby.network.routers10.sw_input_arbiter_activity      1396529                       (Unspecified)
system.ruby.network.routers10.sw_output_arbiter_activity      1378280                       (Unspecified)
system.ruby.network.routers11.Var_1                 0                       (Unspecified)
system.ruby.network.routers11.Var_2                 0                       (Unspecified)
system.ruby.network.routers11.Var_3                 0                       (Unspecified)
system.ruby.network.routers11.all_counts            0                       (Unspecified)
system.ruby.network.routers11.buffer_reads      1038527                       (Unspecified)
system.ruby.network.routers11.buffer_writes      1038527                       (Unspecified)
system.ruby.network.routers11.crossbar_activity      1038527                       (Unspecified)
system.ruby.network.routers11.detour_counts        54059                       (Unspecified)
system.ruby.network.routers11.regular_var            0                       (Unspecified)
system.ruby.network.routers11.risk_counts            0                       (Unspecified)
system.ruby.network.routers11.sw_input_arbiter_activity      1049597                       (Unspecified)
system.ruby.network.routers11.sw_output_arbiter_activity      1038527                       (Unspecified)
system.ruby.network.routers12.Var_1                 0                       (Unspecified)
system.ruby.network.routers12.Var_2                 0                       (Unspecified)
system.ruby.network.routers12.Var_3                 0                       (Unspecified)
system.ruby.network.routers12.all_counts            0                       (Unspecified)
system.ruby.network.routers12.buffer_reads       743617                       (Unspecified)
system.ruby.network.routers12.buffer_writes       743617                       (Unspecified)
system.ruby.network.routers12.crossbar_activity       743617                       (Unspecified)
system.ruby.network.routers12.detour_counts        54006                       (Unspecified)
system.ruby.network.routers12.regular_var            0                       (Unspecified)
system.ruby.network.routers12.risk_counts            0                       (Unspecified)
system.ruby.network.routers12.sw_input_arbiter_activity       749238                       (Unspecified)
system.ruby.network.routers12.sw_output_arbiter_activity       743617                       (Unspecified)
system.ruby.network.routers13.Var_1                 0                       (Unspecified)
system.ruby.network.routers13.Var_2                 0                       (Unspecified)
system.ruby.network.routers13.Var_3                 0                       (Unspecified)
system.ruby.network.routers13.all_counts            0                       (Unspecified)
system.ruby.network.routers13.buffer_reads      1073969                       (Unspecified)
system.ruby.network.routers13.buffer_writes      1073969                       (Unspecified)
system.ruby.network.routers13.crossbar_activity      1073969                       (Unspecified)
system.ruby.network.routers13.detour_counts        53864                       (Unspecified)
system.ruby.network.routers13.regular_var            0                       (Unspecified)
system.ruby.network.routers13.risk_counts            0                       (Unspecified)
system.ruby.network.routers13.sw_input_arbiter_activity      1086446                       (Unspecified)
system.ruby.network.routers13.sw_output_arbiter_activity      1073969                       (Unspecified)
system.ruby.network.routers14.Var_1                 0                       (Unspecified)
system.ruby.network.routers14.Var_2                 0                       (Unspecified)
system.ruby.network.routers14.Var_3                 0                       (Unspecified)
system.ruby.network.routers14.all_counts            0                       (Unspecified)
system.ruby.network.routers14.buffer_reads      1068886                       (Unspecified)
system.ruby.network.routers14.buffer_writes      1068886                       (Unspecified)
system.ruby.network.routers14.crossbar_activity      1068886                       (Unspecified)
system.ruby.network.routers14.detour_counts        54026                       (Unspecified)
system.ruby.network.routers14.regular_var            0                       (Unspecified)
system.ruby.network.routers14.risk_counts            0                       (Unspecified)
system.ruby.network.routers14.sw_input_arbiter_activity      1081172                       (Unspecified)
system.ruby.network.routers14.sw_output_arbiter_activity      1068886                       (Unspecified)
system.ruby.network.routers15.Var_1                 0                       (Unspecified)
system.ruby.network.routers15.Var_2                 0                       (Unspecified)
system.ruby.network.routers15.Var_3                 0                       (Unspecified)
system.ruby.network.routers15.all_counts            0                       (Unspecified)
system.ruby.network.routers15.buffer_reads       738517                       (Unspecified)
system.ruby.network.routers15.buffer_writes       738517                       (Unspecified)
system.ruby.network.routers15.crossbar_activity       738517                       (Unspecified)
system.ruby.network.routers15.detour_counts        54067                       (Unspecified)
system.ruby.network.routers15.regular_var            0                       (Unspecified)
system.ruby.network.routers15.risk_counts            0                       (Unspecified)
system.ruby.network.routers15.sw_input_arbiter_activity       743867                       (Unspecified)
system.ruby.network.routers15.sw_output_arbiter_activity       738517                       (Unspecified)

---------- End Simulation Statistics   ----------
