
---------- Begin Simulation Statistics ----------
simSeconds                                   0.005050                       # Number of seconds simulated (Second)
simTicks                                   5049788500                       # Number of ticks simulated (Tick)
finalTick                                  5049788500                       # Number of ticks from beginning of simulation (restored from checkpoints and never reset) (Tick)
simFreq                                  1000000000000                       # The number of ticks per simulated second ((Tick/Second))
hostSeconds                                    829.49                       # Real time elapsed on the host (Second)
hostTickRate                                  6087798                       # The number of ticks simulated per host second (ticks/s) ((Tick/Second))
hostMemory                                   11458216                       # Number of bytes of host memory used (Byte)
simInsts                                     37158448                       # Number of instructions simulated (Count)
simOps                                       63621008                       # Number of ops (including micro ops) simulated (Count)
hostInstRate                                    44797                       # Simulator instruction rate (inst/s) ((Count/Second))
hostOpRate                                      76699                       # Simulator op (including micro ops) rate (op/s) ((Count/Second))
system.clk_domain.clock                          1000                       # Clock period in ticks (Tick)
system.cpu0.numCycles                        10007942                       # Number of cpu cycles simulated (Cycle)
system.cpu0.numWorkItemsStarted                     0                       # Number of work items this cpu started (Count)
system.cpu0.numWorkItemsCompleted                   0                       # Number of work items this cpu completed (Count)
system.cpu0.instsAdded                        5033740                       # Number of instructions added to the IQ (excludes non-spec) (Count)
system.cpu0.nonSpecInstsAdded                    1100                       # Number of non-speculative instructions added to the IQ (Count)
system.cpu0.instsIssued                       4667442                       # Number of instructions issued (Count)
system.cpu0.squashedInstsIssued                  2866                       # Number of squashed instructions issued (Count)
system.cpu0.squashedInstsExamined             1058527                       # Number of squashed instructions iterated over during squash; mainly for profiling (Count)
system.cpu0.squashedOperandsExamined          2280839                       # Number of squashed operands that are examined and possibly removed from graph (Count)
system.cpu0.squashedNonSpecRemoved                247                       # Number of squashed non-spec instructions that were removed (Count)
system.cpu0.numIssuedDist::samples            8841481                       # Number of insts issued each cycle (Count)
system.cpu0.numIssuedDist::mean              0.527903                       # Number of insts issued each cycle (Count)
system.cpu0.numIssuedDist::stdev             1.457214                       # Number of insts issued each cycle (Count)
system.cpu0.numIssuedDist::underflows               0      0.00%      0.00% # Number of insts issued each cycle (Count)
system.cpu0.numIssuedDist::0                  7508325     84.92%     84.92% # Number of insts issued each cycle (Count)
system.cpu0.numIssuedDist::1                   222805      2.52%     87.44% # Number of insts issued each cycle (Count)
system.cpu0.numIssuedDist::2                   262054      2.96%     90.41% # Number of insts issued each cycle (Count)
system.cpu0.numIssuedDist::3                   251414      2.84%     93.25% # Number of insts issued each cycle (Count)
system.cpu0.numIssuedDist::4                   203345      2.30%     95.55% # Number of insts issued each cycle (Count)
system.cpu0.numIssuedDist::5                   157203      1.78%     97.33% # Number of insts issued each cycle (Count)
system.cpu0.numIssuedDist::6                   126317      1.43%     98.76% # Number of insts issued each cycle (Count)
system.cpu0.numIssuedDist::7                    71154      0.80%     99.56% # Number of insts issued each cycle (Count)
system.cpu0.numIssuedDist::8                    38864      0.44%    100.00% # Number of insts issued each cycle (Count)
system.cpu0.numIssuedDist::overflows                0      0.00%    100.00% # Number of insts issued each cycle (Count)
system.cpu0.numIssuedDist::min_value                0                       # Number of insts issued each cycle (Count)
system.cpu0.numIssuedDist::max_value                8                       # Number of insts issued each cycle (Count)
system.cpu0.numIssuedDist::total              8841481                       # Number of insts issued each cycle (Count)
system.cpu0.statFuBusy::No_OpClass                  0      0.00%      0.00% # attempts to use FU when none available (Count)
system.cpu0.statFuBusy::IntAlu                  42235     63.55%     63.55% # attempts to use FU when none available (Count)
system.cpu0.statFuBusy::IntMult                     0      0.00%     63.55% # attempts to use FU when none available (Count)
system.cpu0.statFuBusy::IntDiv                      0      0.00%     63.55% # attempts to use FU when none available (Count)
system.cpu0.statFuBusy::FloatAdd                    0      0.00%     63.55% # attempts to use FU when none available (Count)
system.cpu0.statFuBusy::FloatCmp                    0      0.00%     63.55% # attempts to use FU when none available (Count)
system.cpu0.statFuBusy::FloatCvt                    2      0.00%     63.55% # attempts to use FU when none available (Count)
system.cpu0.statFuBusy::FloatMult                   0      0.00%     63.55% # attempts to use FU when none available (Count)
system.cpu0.statFuBusy::FloatMultAcc                0      0.00%     63.55% # attempts to use FU when none available (Count)
system.cpu0.statFuBusy::FloatDiv                    0      0.00%     63.55% # attempts to use FU when none available (Count)
system.cpu0.statFuBusy::FloatMisc                   0      0.00%     63.55% # attempts to use FU when none available (Count)
system.cpu0.statFuBusy::FloatSqrt                   0      0.00%     63.55% # attempts to use FU when none available (Count)
system.cpu0.statFuBusy::SimdAdd                     0      0.00%     63.55% # attempts to use FU when none available (Count)
system.cpu0.statFuBusy::SimdAddAcc                  0      0.00%     63.55% # attempts to use FU when none available (Count)
system.cpu0.statFuBusy::SimdAlu                   122      0.18%     63.73% # attempts to use FU when none available (Count)
system.cpu0.statFuBusy::SimdCmp                     0      0.00%     63.73% # attempts to use FU when none available (Count)
system.cpu0.statFuBusy::SimdCvt                   171      0.26%     63.99% # attempts to use FU when none available (Count)
system.cpu0.statFuBusy::SimdMisc                    0      0.00%     63.99% # attempts to use FU when none available (Count)
system.cpu0.statFuBusy::SimdMult                    0      0.00%     63.99% # attempts to use FU when none available (Count)
system.cpu0.statFuBusy::SimdMultAcc                 0      0.00%     63.99% # attempts to use FU when none available (Count)
system.cpu0.statFuBusy::SimdShift                 206      0.31%     64.30% # attempts to use FU when none available (Count)
system.cpu0.statFuBusy::SimdShiftAcc                0      0.00%     64.30% # attempts to use FU when none available (Count)
system.cpu0.statFuBusy::SimdDiv                     0      0.00%     64.30% # attempts to use FU when none available (Count)
system.cpu0.statFuBusy::SimdSqrt                    0      0.00%     64.30% # attempts to use FU when none available (Count)
system.cpu0.statFuBusy::SimdFloatAdd                0      0.00%     64.30% # attempts to use FU when none available (Count)
system.cpu0.statFuBusy::SimdFloatAlu                0      0.00%     64.30% # attempts to use FU when none available (Count)
system.cpu0.statFuBusy::SimdFloatCmp                0      0.00%     64.30% # attempts to use FU when none available (Count)
system.cpu0.statFuBusy::SimdFloatCvt                0      0.00%     64.30% # attempts to use FU when none available (Count)
system.cpu0.statFuBusy::SimdFloatDiv                0      0.00%     64.30% # attempts to use FU when none available (Count)
system.cpu0.statFuBusy::SimdFloatMisc               0      0.00%     64.30% # attempts to use FU when none available (Count)
system.cpu0.statFuBusy::SimdFloatMult               0      0.00%     64.30% # attempts to use FU when none available (Count)
system.cpu0.statFuBusy::SimdFloatMultAcc            0      0.00%     64.30% # attempts to use FU when none available (Count)
system.cpu0.statFuBusy::SimdFloatSqrt               0      0.00%     64.30% # attempts to use FU when none available (Count)
system.cpu0.statFuBusy::SimdReduceAdd               0      0.00%     64.30% # attempts to use FU when none available (Count)
system.cpu0.statFuBusy::SimdReduceAlu               0      0.00%     64.30% # attempts to use FU when none available (Count)
system.cpu0.statFuBusy::SimdReduceCmp               0      0.00%     64.30% # attempts to use FU when none available (Count)
system.cpu0.statFuBusy::SimdFloatReduceAdd            0      0.00%     64.30% # attempts to use FU when none available (Count)
system.cpu0.statFuBusy::SimdFloatReduceCmp            0      0.00%     64.30% # attempts to use FU when none available (Count)
system.cpu0.statFuBusy::SimdAes                     0      0.00%     64.30% # attempts to use FU when none available (Count)
system.cpu0.statFuBusy::SimdAesMix                  0      0.00%     64.30% # attempts to use FU when none available (Count)
system.cpu0.statFuBusy::SimdSha1Hash                0      0.00%     64.30% # attempts to use FU when none available (Count)
system.cpu0.statFuBusy::SimdSha1Hash2               0      0.00%     64.30% # attempts to use FU when none available (Count)
system.cpu0.statFuBusy::SimdSha256Hash              0      0.00%     64.30% # attempts to use FU when none available (Count)
system.cpu0.statFuBusy::SimdSha256Hash2             0      0.00%     64.30% # attempts to use FU when none available (Count)
system.cpu0.statFuBusy::SimdShaSigma2               0      0.00%     64.30% # attempts to use FU when none available (Count)
system.cpu0.statFuBusy::SimdShaSigma3               0      0.00%     64.30% # attempts to use FU when none available (Count)
system.cpu0.statFuBusy::SimdPredAlu                 0      0.00%     64.30% # attempts to use FU when none available (Count)
system.cpu0.statFuBusy::MemRead                 12060     18.15%     82.44% # attempts to use FU when none available (Count)
system.cpu0.statFuBusy::MemWrite                 7880     11.86%     94.30% # attempts to use FU when none available (Count)
system.cpu0.statFuBusy::FloatMemRead             1956      2.94%     97.24% # attempts to use FU when none available (Count)
system.cpu0.statFuBusy::FloatMemWrite            1832      2.76%    100.00% # attempts to use FU when none available (Count)
system.cpu0.statFuBusy::IprAccess                   0      0.00%    100.00% # attempts to use FU when none available (Count)
system.cpu0.statFuBusy::InstPrefetch                0      0.00%    100.00% # attempts to use FU when none available (Count)
system.cpu0.statIssuedInstType_0::No_OpClass        17638      0.38%      0.38% # Number of instructions issued per FU type, per thread (Count)
system.cpu0.statIssuedInstType_0::IntAlu      3592364     76.97%     77.34% # Number of instructions issued per FU type, per thread (Count)
system.cpu0.statIssuedInstType_0::IntMult           34      0.00%     77.35% # Number of instructions issued per FU type, per thread (Count)
system.cpu0.statIssuedInstType_0::IntDiv        38351      0.82%     78.17% # Number of instructions issued per FU type, per thread (Count)
system.cpu0.statIssuedInstType_0::FloatAdd         4370      0.09%     78.26% # Number of instructions issued per FU type, per thread (Count)
system.cpu0.statIssuedInstType_0::FloatCmp            0      0.00%     78.26% # Number of instructions issued per FU type, per thread (Count)
system.cpu0.statIssuedInstType_0::FloatCvt         1674      0.04%     78.30% # Number of instructions issued per FU type, per thread (Count)
system.cpu0.statIssuedInstType_0::FloatMult            0      0.00%     78.30% # Number of instructions issued per FU type, per thread (Count)
system.cpu0.statIssuedInstType_0::FloatMultAcc            0      0.00%     78.30% # Number of instructions issued per FU type, per thread (Count)
system.cpu0.statIssuedInstType_0::FloatDiv            0      0.00%     78.30% # Number of instructions issued per FU type, per thread (Count)
system.cpu0.statIssuedInstType_0::FloatMisc            0      0.00%     78.30% # Number of instructions issued per FU type, per thread (Count)
system.cpu0.statIssuedInstType_0::FloatSqrt            0      0.00%     78.30% # Number of instructions issued per FU type, per thread (Count)
system.cpu0.statIssuedInstType_0::SimdAdd         8528      0.18%     78.48% # Number of instructions issued per FU type, per thread (Count)
system.cpu0.statIssuedInstType_0::SimdAddAcc            0      0.00%     78.48% # Number of instructions issued per FU type, per thread (Count)
system.cpu0.statIssuedInstType_0::SimdAlu        17267      0.37%     78.85% # Number of instructions issued per FU type, per thread (Count)
system.cpu0.statIssuedInstType_0::SimdCmp            0      0.00%     78.85% # Number of instructions issued per FU type, per thread (Count)
system.cpu0.statIssuedInstType_0::SimdCvt        18908      0.41%     79.25% # Number of instructions issued per FU type, per thread (Count)
system.cpu0.statIssuedInstType_0::SimdMisc         8992      0.19%     79.45% # Number of instructions issued per FU type, per thread (Count)
system.cpu0.statIssuedInstType_0::SimdMult            0      0.00%     79.45% # Number of instructions issued per FU type, per thread (Count)
system.cpu0.statIssuedInstType_0::SimdMultAcc            0      0.00%     79.45% # Number of instructions issued per FU type, per thread (Count)
system.cpu0.statIssuedInstType_0::SimdShift         2986      0.06%     79.51% # Number of instructions issued per FU type, per thread (Count)
system.cpu0.statIssuedInstType_0::SimdShiftAcc            0      0.00%     79.51% # Number of instructions issued per FU type, per thread (Count)
system.cpu0.statIssuedInstType_0::SimdDiv            0      0.00%     79.51% # Number of instructions issued per FU type, per thread (Count)
system.cpu0.statIssuedInstType_0::SimdSqrt            0      0.00%     79.51% # Number of instructions issued per FU type, per thread (Count)
system.cpu0.statIssuedInstType_0::SimdFloatAdd            0      0.00%     79.51% # Number of instructions issued per FU type, per thread (Count)
system.cpu0.statIssuedInstType_0::SimdFloatAlu            0      0.00%     79.51% # Number of instructions issued per FU type, per thread (Count)
system.cpu0.statIssuedInstType_0::SimdFloatCmp            0      0.00%     79.51% # Number of instructions issued per FU type, per thread (Count)
system.cpu0.statIssuedInstType_0::SimdFloatCvt            0      0.00%     79.51% # Number of instructions issued per FU type, per thread (Count)
system.cpu0.statIssuedInstType_0::SimdFloatDiv            0      0.00%     79.51% # Number of instructions issued per FU type, per thread (Count)
system.cpu0.statIssuedInstType_0::SimdFloatMisc            0      0.00%     79.51% # Number of instructions issued per FU type, per thread (Count)
system.cpu0.statIssuedInstType_0::SimdFloatMult            0      0.00%     79.51% # Number of instructions issued per FU type, per thread (Count)
system.cpu0.statIssuedInstType_0::SimdFloatMultAcc            0      0.00%     79.51% # Number of instructions issued per FU type, per thread (Count)
system.cpu0.statIssuedInstType_0::SimdFloatSqrt            0      0.00%     79.51% # Number of instructions issued per FU type, per thread (Count)
system.cpu0.statIssuedInstType_0::SimdReduceAdd            0      0.00%     79.51% # Number of instructions issued per FU type, per thread (Count)
system.cpu0.statIssuedInstType_0::SimdReduceAlu            0      0.00%     79.51% # Number of instructions issued per FU type, per thread (Count)
system.cpu0.statIssuedInstType_0::SimdReduceCmp            0      0.00%     79.51% # Number of instructions issued per FU type, per thread (Count)
system.cpu0.statIssuedInstType_0::SimdFloatReduceAdd            0      0.00%     79.51% # Number of instructions issued per FU type, per thread (Count)
system.cpu0.statIssuedInstType_0::SimdFloatReduceCmp            0      0.00%     79.51% # Number of instructions issued per FU type, per thread (Count)
system.cpu0.statIssuedInstType_0::SimdAes            0      0.00%     79.51% # Number of instructions issued per FU type, per thread (Count)
system.cpu0.statIssuedInstType_0::SimdAesMix            0      0.00%     79.51% # Number of instructions issued per FU type, per thread (Count)
system.cpu0.statIssuedInstType_0::SimdSha1Hash            0      0.00%     79.51% # Number of instructions issued per FU type, per thread (Count)
system.cpu0.statIssuedInstType_0::SimdSha1Hash2            0      0.00%     79.51% # Number of instructions issued per FU type, per thread (Count)
system.cpu0.statIssuedInstType_0::SimdSha256Hash            0      0.00%     79.51% # Number of instructions issued per FU type, per thread (Count)
system.cpu0.statIssuedInstType_0::SimdSha256Hash2            0      0.00%     79.51% # Number of instructions issued per FU type, per thread (Count)
system.cpu0.statIssuedInstType_0::SimdShaSigma2            0      0.00%     79.51% # Number of instructions issued per FU type, per thread (Count)
system.cpu0.statIssuedInstType_0::SimdShaSigma3            0      0.00%     79.51% # Number of instructions issued per FU type, per thread (Count)
system.cpu0.statIssuedInstType_0::SimdPredAlu            0      0.00%     79.51% # Number of instructions issued per FU type, per thread (Count)
system.cpu0.statIssuedInstType_0::MemRead       621000     13.30%     92.82% # Number of instructions issued per FU type, per thread (Count)
system.cpu0.statIssuedInstType_0::MemWrite       233050      4.99%     97.81% # Number of instructions issued per FU type, per thread (Count)
system.cpu0.statIssuedInstType_0::FloatMemRead        59087      1.27%     99.07% # Number of instructions issued per FU type, per thread (Count)
system.cpu0.statIssuedInstType_0::FloatMemWrite        43193      0.93%    100.00% # Number of instructions issued per FU type, per thread (Count)
system.cpu0.statIssuedInstType_0::IprAccess            0      0.00%    100.00% # Number of instructions issued per FU type, per thread (Count)
system.cpu0.statIssuedInstType_0::InstPrefetch            0      0.00%    100.00% # Number of instructions issued per FU type, per thread (Count)
system.cpu0.statIssuedInstType_0::total       4667442                       # Number of instructions issued per FU type, per thread (Count)
system.cpu0.issueRate                        0.466374                       # Inst issue rate ((Count/Cycle))
system.cpu0.fuBusy                              66464                       # FU busy when requested (Count)
system.cpu0.fuBusyRate                       0.014240                       # FU busy rate (busy events/executed inst) ((Count/Count))
system.cpu0.intInstQueueReads                17908805                       # Number of integer instruction queue reads (Count)
system.cpu0.intInstQueueWrites                5864164                       # Number of integer instruction queue writes (Count)
system.cpu0.intInstQueueWakeupAccesses        4445237                       # Number of integer instruction queue wakeup accesses (Count)
system.cpu0.fpInstQueueReads                   336890                       # Number of floating instruction queue reads (Count)
system.cpu0.fpInstQueueWrites                  229351                       # Number of floating instruction queue writes (Count)
system.cpu0.fpInstQueueWakeupAccesses          162252                       # Number of floating instruction queue wakeup accesses (Count)
system.cpu0.vecInstQueueReads                       0                       # Number of vector instruction queue reads (Count)
system.cpu0.vecInstQueueWrites                      0                       # Number of vector instruction queue writes (Count)
system.cpu0.vecInstQueueWakeupAccesses              0                       # Number of vector instruction queue wakeup accesses (Count)
system.cpu0.intAluAccesses                    4545822                       # Number of integer alu accesses (Count)
system.cpu0.fpAluAccesses                      170446                       # Number of floating point alu accesses (Count)
system.cpu0.vecAluAccesses                          0                       # Number of vector alu accesses (Count)
system.cpu0.numInsts                          4636886                       # Number of executed instructions (Count)
system.cpu0.numLoadInsts                       672245                       # Number of load instructions executed (Count)
system.cpu0.numSquashedInsts                    30556                       # Number of squashed instructions skipped in execute (Count)
system.cpu0.numSwp                                  0                       # Number of swp insts executed (Count)
system.cpu0.numNop                                  0                       # Number of nop insts executed (Count)
system.cpu0.numRefs                            946414                       # Number of memory reference insts executed (Count)
system.cpu0.numBranches                        399172                       # Number of branches executed (Count)
system.cpu0.numStoreInsts                      274169                       # Number of stores executed (Count)
system.cpu0.numRate                          0.463321                       # Inst execution rate ((Count/Cycle))
system.cpu0.timesIdled                           2379                       # Number of times that the entire CPU went into an idle state and unscheduled itself (Count)
system.cpu0.idleCycles                        1166461                       # Total number of cycles that the CPU has spent unscheduled due to idling (Cycle)
system.cpu0.committedInsts                    2322403                       # Number of Instructions Simulated (Count)
system.cpu0.committedOps                      3976313                       # Number of Ops (including micro ops) Simulated (Count)
system.cpu0.cpi                              4.309305                       # CPI: Cycles Per Instruction ((Cycle/Count))
system.cpu0.totalCpi                         4.309305                       # CPI: Total CPI of All Threads ((Cycle/Count))
system.cpu0.ipc                              0.232056                       # IPC: Instructions Per Cycle ((Count/Cycle))
system.cpu0.totalIpc                         0.232056                       # IPC: Total IPC of All Threads ((Count/Cycle))
system.cpu0.intRegfileReads                   6285983                       # Number of integer regfile reads (Count)
system.cpu0.intRegfileWrites                  3555017                       # Number of integer regfile writes (Count)
system.cpu0.fpRegfileReads                     178000                       # Number of floating regfile reads (Count)
system.cpu0.fpRegfileWrites                    109758                       # Number of floating regfile writes (Count)
system.cpu0.ccRegfileReads                    2548272                       # number of cc regfile reads (Count)
system.cpu0.ccRegfileWrites                   2097999                       # number of cc regfile writes (Count)
system.cpu0.miscRegfileReads                  1801602                       # number of misc regfile reads (Count)
system.cpu0.miscRegfileWrites                     846                       # number of misc regfile writes (Count)
system.cpu0.MemDepUnit__0.insertedLoads        700786                       # Number of loads inserted to the mem dependence unit. (Count)
system.cpu0.MemDepUnit__0.insertedStores       286542                       # Number of stores inserted to the mem dependence unit. (Count)
system.cpu0.MemDepUnit__0.conflictingLoads        22420                       # Number of conflicting loads. (Count)
system.cpu0.MemDepUnit__0.conflictingStores         5891                       # Number of conflicting stores. (Count)
system.cpu0.MemDepUnit__1.insertedLoads             0                       # Number of loads inserted to the mem dependence unit. (Count)
system.cpu0.MemDepUnit__1.insertedStores            0                       # Number of stores inserted to the mem dependence unit. (Count)
system.cpu0.MemDepUnit__1.conflictingLoads            0                       # Number of conflicting loads. (Count)
system.cpu0.MemDepUnit__1.conflictingStores            0                       # Number of conflicting stores. (Count)
system.cpu0.MemDepUnit__2.insertedLoads             0                       # Number of loads inserted to the mem dependence unit. (Count)
system.cpu0.MemDepUnit__2.insertedStores            0                       # Number of stores inserted to the mem dependence unit. (Count)
system.cpu0.MemDepUnit__2.conflictingLoads            0                       # Number of conflicting loads. (Count)
system.cpu0.MemDepUnit__2.conflictingStores            0                       # Number of conflicting stores. (Count)
system.cpu0.MemDepUnit__3.insertedLoads             0                       # Number of loads inserted to the mem dependence unit. (Count)
system.cpu0.MemDepUnit__3.insertedStores            0                       # Number of stores inserted to the mem dependence unit. (Count)
system.cpu0.MemDepUnit__3.conflictingLoads            0                       # Number of conflicting loads. (Count)
system.cpu0.MemDepUnit__3.conflictingStores            0                       # Number of conflicting stores. (Count)
system.cpu0.branchPred.lookups                 516412                       # Number of BP lookups (Count)
system.cpu0.branchPred.condPredicted           457324                       # Number of conditional branches predicted (Count)
system.cpu0.branchPred.condIncorrect            17246                       # Number of conditional branches incorrect (Count)
system.cpu0.branchPred.BTBLookups              271929                       # Number of BTB lookups (Count)
system.cpu0.branchPred.BTBUpdates                8723                       # Number of BTB updates (Count)
system.cpu0.branchPred.BTBHits                 267844                       # Number of BTB hits (Count)
system.cpu0.branchPred.BTBHitRatio           0.984978                       # BTB Hit Ratio (Ratio)
system.cpu0.branchPred.RASUsed                  13645                       # Number of times the RAS was used to get a target. (Count)
system.cpu0.branchPred.RASIncorrect                 9                       # Number of incorrect RAS predictions. (Count)
system.cpu0.branchPred.indirectLookups          10031                       # Number of indirect predictor lookups. (Count)
system.cpu0.branchPred.indirectHits              5316                       # Number of indirect target hits. (Count)
system.cpu0.branchPred.indirectMisses            4715                       # Number of indirect misses. (Count)
system.cpu0.branchPred.indirectMispredicted         1244                       # Number of mispredicted indirect branches. (Count)
system.cpu0.commit.commitSquashedInsts        1049341                       # The number of squashed insts skipped by commit (Count)
system.cpu0.commit.commitNonSpecStalls            853                       # The number of times commit has been forced to stall to communicate backwards (Count)
system.cpu0.commit.branchMispredicts            18449                       # The number of times a branch was mispredicted (Count)
system.cpu0.commit.numCommittedDist::samples      8689461                       # Number of insts commited each cycle (Count)
system.cpu0.commit.numCommittedDist::mean     0.457602                       # Number of insts commited each cycle (Count)
system.cpu0.commit.numCommittedDist::stdev     1.530405                       # Number of insts commited each cycle (Count)
system.cpu0.commit.numCommittedDist::underflows            0      0.00%      0.00% # Number of insts commited each cycle (Count)
system.cpu0.commit.numCommittedDist::0        7645858     87.99%     87.99% # Number of insts commited each cycle (Count)
system.cpu0.commit.numCommittedDist::1         269816      3.11%     91.10% # Number of insts commited each cycle (Count)
system.cpu0.commit.numCommittedDist::2         117171      1.35%     92.44% # Number of insts commited each cycle (Count)
system.cpu0.commit.numCommittedDist::3         243231      2.80%     95.24% # Number of insts commited each cycle (Count)
system.cpu0.commit.numCommittedDist::4          50983      0.59%     95.83% # Number of insts commited each cycle (Count)
system.cpu0.commit.numCommittedDist::5         101784      1.17%     97.00% # Number of insts commited each cycle (Count)
system.cpu0.commit.numCommittedDist::6          17027      0.20%     97.20% # Number of insts commited each cycle (Count)
system.cpu0.commit.numCommittedDist::7          21280      0.24%     97.44% # Number of insts commited each cycle (Count)
system.cpu0.commit.numCommittedDist::8         222311      2.56%    100.00% # Number of insts commited each cycle (Count)
system.cpu0.commit.numCommittedDist::overflows            0      0.00%    100.00% # Number of insts commited each cycle (Count)
system.cpu0.commit.numCommittedDist::min_value            0                       # Number of insts commited each cycle (Count)
system.cpu0.commit.numCommittedDist::max_value            8                       # Number of insts commited each cycle (Count)
system.cpu0.commit.numCommittedDist::total      8689461                       # Number of insts commited each cycle (Count)
system.cpu0.commit.instsCommitted             2322403                       # Number of instructions committed (Count)
system.cpu0.commit.opsCommitted               3976313                       # Number of ops (including micro ops) committed (Count)
system.cpu0.commit.memRefs                     809635                       # Number of memory references committed (Count)
system.cpu0.commit.loads                       561319                       # Number of loads committed (Count)
system.cpu0.commit.amos                             0                       # Number of atomic instructions committed (Count)
system.cpu0.commit.membars                          2                       # Number of memory barriers committed (Count)
system.cpu0.commit.branches                    362969                       # Number of branches committed (Count)
system.cpu0.commit.vectorInstructions               0                       # Number of committed Vector instructions. (Count)
system.cpu0.commit.floating                    132087                       # Number of committed floating point instructions. (Count)
system.cpu0.commit.integer                    3916638                       # Number of committed integer instructions. (Count)
system.cpu0.commit.functionCalls                 9748                       # Number of function calls committed. (Count)
system.cpu0.commit.committedInstType_0::No_OpClass        10123      0.25%      0.25% # Class of committed instruction (Count)
system.cpu0.commit.committedInstType_0::IntAlu      3074701     77.33%     77.58% # Class of committed instruction (Count)
system.cpu0.commit.committedInstType_0::IntMult           29      0.00%     77.58% # Class of committed instruction (Count)
system.cpu0.commit.committedInstType_0::IntDiv        35987      0.91%     78.49% # Class of committed instruction (Count)
system.cpu0.commit.committedInstType_0::FloatAdd         3202      0.08%     78.57% # Class of committed instruction (Count)
system.cpu0.commit.committedInstType_0::FloatCmp            0      0.00%     78.57% # Class of committed instruction (Count)
system.cpu0.commit.committedInstType_0::FloatCvt         1504      0.04%     78.60% # Class of committed instruction (Count)
system.cpu0.commit.committedInstType_0::FloatMult            0      0.00%     78.60% # Class of committed instruction (Count)
system.cpu0.commit.committedInstType_0::FloatMultAcc            0      0.00%     78.60% # Class of committed instruction (Count)
system.cpu0.commit.committedInstType_0::FloatDiv            0      0.00%     78.60% # Class of committed instruction (Count)
system.cpu0.commit.committedInstType_0::FloatMisc            0      0.00%     78.60% # Class of committed instruction (Count)
system.cpu0.commit.committedInstType_0::FloatSqrt            0      0.00%     78.60% # Class of committed instruction (Count)
system.cpu0.commit.committedInstType_0::SimdAdd         6750      0.17%     78.77% # Class of committed instruction (Count)
system.cpu0.commit.committedInstType_0::SimdAddAcc            0      0.00%     78.77% # Class of committed instruction (Count)
system.cpu0.commit.committedInstType_0::SimdAlu        12220      0.31%     79.08% # Class of committed instruction (Count)
system.cpu0.commit.committedInstType_0::SimdCmp            0      0.00%     79.08% # Class of committed instruction (Count)
system.cpu0.commit.committedInstType_0::SimdCvt        13196      0.33%     79.41% # Class of committed instruction (Count)
system.cpu0.commit.committedInstType_0::SimdMisc         7208      0.18%     79.59% # Class of committed instruction (Count)
system.cpu0.commit.committedInstType_0::SimdMult            0      0.00%     79.59% # Class of committed instruction (Count)
system.cpu0.commit.committedInstType_0::SimdMultAcc            0      0.00%     79.59% # Class of committed instruction (Count)
system.cpu0.commit.committedInstType_0::SimdShift         1758      0.04%     79.64% # Class of committed instruction (Count)
system.cpu0.commit.committedInstType_0::SimdShiftAcc            0      0.00%     79.64% # Class of committed instruction (Count)
system.cpu0.commit.committedInstType_0::SimdDiv            0      0.00%     79.64% # Class of committed instruction (Count)
system.cpu0.commit.committedInstType_0::SimdSqrt            0      0.00%     79.64% # Class of committed instruction (Count)
system.cpu0.commit.committedInstType_0::SimdFloatAdd            0      0.00%     79.64% # Class of committed instruction (Count)
system.cpu0.commit.committedInstType_0::SimdFloatAlu            0      0.00%     79.64% # Class of committed instruction (Count)
system.cpu0.commit.committedInstType_0::SimdFloatCmp            0      0.00%     79.64% # Class of committed instruction (Count)
system.cpu0.commit.committedInstType_0::SimdFloatCvt            0      0.00%     79.64% # Class of committed instruction (Count)
system.cpu0.commit.committedInstType_0::SimdFloatDiv            0      0.00%     79.64% # Class of committed instruction (Count)
system.cpu0.commit.committedInstType_0::SimdFloatMisc            0      0.00%     79.64% # Class of committed instruction (Count)
system.cpu0.commit.committedInstType_0::SimdFloatMult            0      0.00%     79.64% # Class of committed instruction (Count)
system.cpu0.commit.committedInstType_0::SimdFloatMultAcc            0      0.00%     79.64% # Class of committed instruction (Count)
system.cpu0.commit.committedInstType_0::SimdFloatSqrt            0      0.00%     79.64% # Class of committed instruction (Count)
system.cpu0.commit.committedInstType_0::SimdReduceAdd            0      0.00%     79.64% # Class of committed instruction (Count)
system.cpu0.commit.committedInstType_0::SimdReduceAlu            0      0.00%     79.64% # Class of committed instruction (Count)
system.cpu0.commit.committedInstType_0::SimdReduceCmp            0      0.00%     79.64% # Class of committed instruction (Count)
system.cpu0.commit.committedInstType_0::SimdFloatReduceAdd            0      0.00%     79.64% # Class of committed instruction (Count)
system.cpu0.commit.committedInstType_0::SimdFloatReduceCmp            0      0.00%     79.64% # Class of committed instruction (Count)
system.cpu0.commit.committedInstType_0::SimdAes            0      0.00%     79.64% # Class of committed instruction (Count)
system.cpu0.commit.committedInstType_0::SimdAesMix            0      0.00%     79.64% # Class of committed instruction (Count)
system.cpu0.commit.committedInstType_0::SimdSha1Hash            0      0.00%     79.64% # Class of committed instruction (Count)
system.cpu0.commit.committedInstType_0::SimdSha1Hash2            0      0.00%     79.64% # Class of committed instruction (Count)
system.cpu0.commit.committedInstType_0::SimdSha256Hash            0      0.00%     79.64% # Class of committed instruction (Count)
system.cpu0.commit.committedInstType_0::SimdSha256Hash2            0      0.00%     79.64% # Class of committed instruction (Count)
system.cpu0.commit.committedInstType_0::SimdShaSigma2            0      0.00%     79.64% # Class of committed instruction (Count)
system.cpu0.commit.committedInstType_0::SimdShaSigma3            0      0.00%     79.64% # Class of committed instruction (Count)
system.cpu0.commit.committedInstType_0::SimdPredAlu            0      0.00%     79.64% # Class of committed instruction (Count)
system.cpu0.commit.committedInstType_0::MemRead       515026     12.95%     92.59% # Class of committed instruction (Count)
system.cpu0.commit.committedInstType_0::MemWrite       209260      5.26%     97.85% # Class of committed instruction (Count)
system.cpu0.commit.committedInstType_0::FloatMemRead        46293      1.16%     99.02% # Class of committed instruction (Count)
system.cpu0.commit.committedInstType_0::FloatMemWrite        39056      0.98%    100.00% # Class of committed instruction (Count)
system.cpu0.commit.committedInstType_0::IprAccess            0      0.00%    100.00% # Class of committed instruction (Count)
system.cpu0.commit.committedInstType_0::InstPrefetch            0      0.00%    100.00% # Class of committed instruction (Count)
system.cpu0.commit.committedInstType_0::total      3976313                       # Class of committed instruction (Count)
system.cpu0.commit.commitEligibleSamples       222311                       # number cycles where commit BW limit reached (Cycle)
system.cpu0.decode.idleCycles                  472155                       # Number of cycles decode is idle (Cycle)
system.cpu0.decode.blockedCycles              7607331                       # Number of cycles decode is blocked (Cycle)
system.cpu0.decode.runCycles                   532266                       # Number of cycles decode is running (Cycle)
system.cpu0.decode.unblockCycles               210556                       # Number of cycles decode is unblocking (Cycle)
system.cpu0.decode.squashCycles                 19173                       # Number of cycles decode is squashing (Cycle)
system.cpu0.decode.branchResolved              253917                       # Number of times decode resolved a branch (Count)
system.cpu0.decode.branchMispred                 1221                       # Number of times decode detected a branch misprediction (Count)
system.cpu0.decode.decodedInsts               5220067                       # Number of instructions handled by decode (Count)
system.cpu0.decode.squashedInsts                 5770                       # Number of squashed instructions handled by decode (Count)
system.cpu0.fetch.icacheStallCycles            479716                       # Number of cycles fetch is stalled on an Icache miss (Cycle)
system.cpu0.fetch.insts                       3171167                       # Number of instructions fetch has processed (Count)
system.cpu0.fetch.branches                     516412                       # Number of branches that fetch encountered (Count)
system.cpu0.fetch.predictedBranches            286805                       # Number of branches that fetch has predicted taken (Count)
system.cpu0.fetch.cycles                      8113227                       # Number of cycles fetch has run and was not squashing or blocked (Cycle)
system.cpu0.fetch.squashCycles                  40736                       # Number of cycles fetch has spent squashing (Cycle)
system.cpu0.fetch.miscStallCycles               11980                       # Number of cycles fetch has spent waiting on interrupts, or bad addresses, or out of MSHRs (Cycle)
system.cpu0.fetch.pendingTrapStallCycles        15712                       # Number of stall cycles due to pending traps (Cycle)
system.cpu0.fetch.icacheWaitRetryStallCycles       200478                       # Number of stall cycles due to full MSHR (Cycle)
system.cpu0.fetch.cacheLines                   286569                       # Number of cache lines fetched (Count)
system.cpu0.fetch.icacheSquashes                 4854                       # Number of outstanding Icache misses that were squashed (Count)
system.cpu0.fetch.nisnDist::samples           8841481                       # Number of instructions fetched each cycle (Total) (Count)
system.cpu0.fetch.nisnDist::mean             0.625281                       # Number of instructions fetched each cycle (Total) (Count)
system.cpu0.fetch.nisnDist::stdev            1.986122                       # Number of instructions fetched each cycle (Total) (Count)
system.cpu0.fetch.nisnDist::underflows              0      0.00%      0.00% # Number of instructions fetched each cycle (Total) (Count)
system.cpu0.fetch.nisnDist::0                 7924119     89.62%     89.62% # Number of instructions fetched each cycle (Total) (Count)
system.cpu0.fetch.nisnDist::1                   41651      0.47%     90.10% # Number of instructions fetched each cycle (Total) (Count)
system.cpu0.fetch.nisnDist::2                   47639      0.54%     90.63% # Number of instructions fetched each cycle (Total) (Count)
system.cpu0.fetch.nisnDist::3                   73638      0.83%     91.47% # Number of instructions fetched each cycle (Total) (Count)
system.cpu0.fetch.nisnDist::4                  139575      1.58%     93.05% # Number of instructions fetched each cycle (Total) (Count)
system.cpu0.fetch.nisnDist::5                   63647      0.72%     93.77% # Number of instructions fetched each cycle (Total) (Count)
system.cpu0.fetch.nisnDist::6                   35840      0.41%     94.17% # Number of instructions fetched each cycle (Total) (Count)
system.cpu0.fetch.nisnDist::7                   43984      0.50%     94.67% # Number of instructions fetched each cycle (Total) (Count)
system.cpu0.fetch.nisnDist::8                  471388      5.33%    100.00% # Number of instructions fetched each cycle (Total) (Count)
system.cpu0.fetch.nisnDist::overflows               0      0.00%    100.00% # Number of instructions fetched each cycle (Total) (Count)
system.cpu0.fetch.nisnDist::min_value               0                       # Number of instructions fetched each cycle (Total) (Count)
system.cpu0.fetch.nisnDist::max_value               8                       # Number of instructions fetched each cycle (Total) (Count)
system.cpu0.fetch.nisnDist::total             8841481                       # Number of instructions fetched each cycle (Total) (Count)
system.cpu0.fetch.branchRate                 0.051600                       # Number of branch fetches per cycle (Ratio)
system.cpu0.fetch.rate                       0.316865                       # Number of inst fetches per cycle ((Count/Cycle))
system.cpu0.iew.idleCycles                          0                       # Number of cycles IEW is idle (Cycle)
system.cpu0.iew.squashCycles                    19173                       # Number of cycles IEW is squashing (Cycle)
system.cpu0.iew.blockCycles                   4959208                       # Number of cycles IEW is blocking (Cycle)
system.cpu0.iew.unblockCycles                  141717                       # Number of cycles IEW is unblocking (Cycle)
system.cpu0.iew.dispatchedInsts               5034840                       # Number of instructions dispatched to IQ (Count)
system.cpu0.iew.dispSquashedInsts                1111                       # Number of squashed instructions skipped by dispatch (Count)
system.cpu0.iew.dispLoadInsts                  700786                       # Number of dispatched load instructions (Count)
system.cpu0.iew.dispStoreInsts                 286542                       # Number of dispatched store instructions (Count)
system.cpu0.iew.dispNonSpecInsts                  901                       # Number of dispatched non-speculative instructions (Count)
system.cpu0.iew.iqFullEvents                     7422                       # Number of times the IQ has become full, causing a stall (Count)
system.cpu0.iew.lsqFullEvents                  129106                       # Number of times the LSQ has become full, causing a stall (Count)
system.cpu0.iew.memOrderViolationEvents           155                       # Number of memory order violations (Count)
system.cpu0.iew.predictedTakenIncorrect          7929                       # Number of branches that were predicted taken incorrectly (Count)
system.cpu0.iew.predictedNotTakenIncorrect        12755                       # Number of branches that were predicted not taken incorrectly (Count)
system.cpu0.iew.branchMispredicts               20684                       # Number of branch mispredicts detected at execute (Count)
system.cpu0.iew.instsToCommit                 4619323                       # Cumulative count of insts sent to commit (Count)
system.cpu0.iew.writebackCount                4607489                       # Cumulative count of insts written-back (Count)
system.cpu0.iew.producerInst                  3629112                       # Number of instructions producing a value (Count)
system.cpu0.iew.consumerInst                  6700523                       # Number of instructions consuming a value (Count)
system.cpu0.iew.wbRate                       0.460383                       # Insts written-back per cycle ((Count/Cycle))
system.cpu0.iew.wbFanout                     0.541616                       # Average fanout of values written-back ((Count/Count))
system.cpu0.interrupts.clk_domain.clock          8000                       # Clock period in ticks (Tick)
system.cpu0.lsq0.forwLoads                      69165                       # Number of loads that had data forwarded from stores (Count)
system.cpu0.lsq0.squashedLoads                 139467                       # Number of loads squashed (Count)
system.cpu0.lsq0.ignoredResponses                  97                       # Number of memory responses ignored because the instruction is squashed (Count)
system.cpu0.lsq0.memOrderViolation                155                       # Number of memory ordering violations (Count)
system.cpu0.lsq0.squashedStores                 38226                       # Number of stores squashed (Count)
system.cpu0.lsq0.rescheduledLoads                  17                       # Number of loads that were rescheduled (Count)
system.cpu0.lsq0.blockedByCache                  2086                       # Number of times an access to memory failed due to the cache being blocked (Count)
system.cpu0.lsq0.loadToUse::samples            561241                       # Distribution of cycle latency between the first time a load is issued and its completion (Unspecified)
system.cpu0.lsq0.loadToUse::mean            57.571813                       # Distribution of cycle latency between the first time a load is issued and its completion (Unspecified)
system.cpu0.lsq0.loadToUse::stdev          201.913357                       # Distribution of cycle latency between the first time a load is issued and its completion (Unspecified)
system.cpu0.lsq0.loadToUse::0-9                515603     91.87%     91.87% # Distribution of cycle latency between the first time a load is issued and its completion (Unspecified)
system.cpu0.lsq0.loadToUse::10-19                  68      0.01%     91.88% # Distribution of cycle latency between the first time a load is issued and its completion (Unspecified)
system.cpu0.lsq0.loadToUse::20-29                  99      0.02%     91.90% # Distribution of cycle latency between the first time a load is issued and its completion (Unspecified)
system.cpu0.lsq0.loadToUse::30-39                  90      0.02%     91.91% # Distribution of cycle latency between the first time a load is issued and its completion (Unspecified)
system.cpu0.lsq0.loadToUse::40-49                  97      0.02%     91.93% # Distribution of cycle latency between the first time a load is issued and its completion (Unspecified)
system.cpu0.lsq0.loadToUse::50-59                 170      0.03%     91.96% # Distribution of cycle latency between the first time a load is issued and its completion (Unspecified)
system.cpu0.lsq0.loadToUse::60-69                 138      0.02%     91.99% # Distribution of cycle latency between the first time a load is issued and its completion (Unspecified)
system.cpu0.lsq0.loadToUse::70-79                 100      0.02%     92.00% # Distribution of cycle latency between the first time a load is issued and its completion (Unspecified)
system.cpu0.lsq0.loadToUse::80-89                  78      0.01%     92.02% # Distribution of cycle latency between the first time a load is issued and its completion (Unspecified)
system.cpu0.lsq0.loadToUse::90-99                  64      0.01%     92.03% # Distribution of cycle latency between the first time a load is issued and its completion (Unspecified)
system.cpu0.lsq0.loadToUse::100-109                69      0.01%     92.04% # Distribution of cycle latency between the first time a load is issued and its completion (Unspecified)
system.cpu0.lsq0.loadToUse::110-119                52      0.01%     92.05% # Distribution of cycle latency between the first time a load is issued and its completion (Unspecified)
system.cpu0.lsq0.loadToUse::120-129                47      0.01%     92.06% # Distribution of cycle latency between the first time a load is issued and its completion (Unspecified)
system.cpu0.lsq0.loadToUse::130-139                37      0.01%     92.07% # Distribution of cycle latency between the first time a load is issued and its completion (Unspecified)
system.cpu0.lsq0.loadToUse::140-149                51      0.01%     92.08% # Distribution of cycle latency between the first time a load is issued and its completion (Unspecified)
system.cpu0.lsq0.loadToUse::150-159                46      0.01%     92.08% # Distribution of cycle latency between the first time a load is issued and its completion (Unspecified)
system.cpu0.lsq0.loadToUse::160-169                70      0.01%     92.10% # Distribution of cycle latency between the first time a load is issued and its completion (Unspecified)
system.cpu0.lsq0.loadToUse::170-179               150      0.03%     92.12% # Distribution of cycle latency between the first time a load is issued and its completion (Unspecified)
system.cpu0.lsq0.loadToUse::180-189               597      0.11%     92.23% # Distribution of cycle latency between the first time a load is issued and its completion (Unspecified)
system.cpu0.lsq0.loadToUse::190-199                45      0.01%     92.24% # Distribution of cycle latency between the first time a load is issued and its completion (Unspecified)
system.cpu0.lsq0.loadToUse::200-209                31      0.01%     92.24% # Distribution of cycle latency between the first time a load is issued and its completion (Unspecified)
system.cpu0.lsq0.loadToUse::210-219                83      0.01%     92.26% # Distribution of cycle latency between the first time a load is issued and its completion (Unspecified)
system.cpu0.lsq0.loadToUse::220-229               119      0.02%     92.28% # Distribution of cycle latency between the first time a load is issued and its completion (Unspecified)
system.cpu0.lsq0.loadToUse::230-239               172      0.03%     92.31% # Distribution of cycle latency between the first time a load is issued and its completion (Unspecified)
system.cpu0.lsq0.loadToUse::240-249              1078      0.19%     92.50% # Distribution of cycle latency between the first time a load is issued and its completion (Unspecified)
system.cpu0.lsq0.loadToUse::250-259                49      0.01%     92.51% # Distribution of cycle latency between the first time a load is issued and its completion (Unspecified)
system.cpu0.lsq0.loadToUse::260-269                72      0.01%     92.52% # Distribution of cycle latency between the first time a load is issued and its completion (Unspecified)
system.cpu0.lsq0.loadToUse::270-279                87      0.02%     92.54% # Distribution of cycle latency between the first time a load is issued and its completion (Unspecified)
system.cpu0.lsq0.loadToUse::280-289               164      0.03%     92.57% # Distribution of cycle latency between the first time a load is issued and its completion (Unspecified)
system.cpu0.lsq0.loadToUse::290-299               281      0.05%     92.62% # Distribution of cycle latency between the first time a load is issued and its completion (Unspecified)
system.cpu0.lsq0.loadToUse::overflows           41434      7.38%    100.00% # Distribution of cycle latency between the first time a load is issued and its completion (Unspecified)
system.cpu0.lsq0.loadToUse::min_value               2                       # Distribution of cycle latency between the first time a load is issued and its completion (Unspecified)
system.cpu0.lsq0.loadToUse::max_value            2399                       # Distribution of cycle latency between the first time a load is issued and its completion (Unspecified)
system.cpu0.lsq0.loadToUse::total              561241                       # Distribution of cycle latency between the first time a load is issued and its completion (Unspecified)
system.cpu0.mmu.dtb.rdAccesses                 666691                       # TLB accesses on read requests (Count)
system.cpu0.mmu.dtb.wrAccesses                 274181                       # TLB accesses on write requests (Count)
system.cpu0.mmu.dtb.rdMisses                     3144                       # TLB misses on read requests (Count)
system.cpu0.mmu.dtb.wrMisses                      418                       # TLB misses on write requests (Count)
system.cpu0.mmu.dtb.walker.power_state.pwrStateResidencyTicks::UNDEFINED   5049788500                       # Cumulative time (in ticks) in various power states (Tick)
system.cpu0.mmu.itb.rdAccesses                      0                       # TLB accesses on read requests (Count)
system.cpu0.mmu.itb.wrAccesses                 289052                       # TLB accesses on write requests (Count)
system.cpu0.mmu.itb.rdMisses                        0                       # TLB misses on read requests (Count)
system.cpu0.mmu.itb.wrMisses                     3052                       # TLB misses on write requests (Count)
system.cpu0.mmu.itb.walker.power_state.pwrStateResidencyTicks::UNDEFINED   5049788500                       # Cumulative time (in ticks) in various power states (Tick)
system.cpu0.power_state.pwrStateResidencyTicks::ON   5049788500                       # Cumulative time (in ticks) in various power states (Tick)
system.cpu0.rename.squashCycles                 19173                       # Number of cycles rename is squashing (Cycle)
system.cpu0.rename.idleCycles                  553633                       # Number of cycles rename is idle (Cycle)
system.cpu0.rename.blockCycles                6535747                       # Number of cycles rename is blocking (Cycle)
system.cpu0.rename.serializeStallCycles         21996                       # count of cycles rename stalled for serializing inst (Cycle)
system.cpu0.rename.runCycles                   652094                       # Number of cycles rename is running (Cycle)
system.cpu0.rename.unblockCycles              1058838                       # Number of cycles rename is unblocking (Cycle)
system.cpu0.rename.renamedInsts               5138988                       # Number of instructions processed by rename (Count)
system.cpu0.rename.ROBFullEvents               103194                       # Number of times rename has blocked due to ROB full (Count)
system.cpu0.rename.IQFullEvents                240584                       # Number of times rename has blocked due to IQ full (Count)
system.cpu0.rename.LQFullEvents                152204                       # Number of times rename has blocked due to LQ full (Count)
system.cpu0.rename.SQFullEvents                603794                       # Number of times rename has blocked due to SQ full (Count)
system.cpu0.rename.fullRegistersEvents           2787                       # Number of times there has been no free registers (Count)
system.cpu0.rename.renamedOperands           10669108                       # Number of destination operands rename has renamed (Count)
system.cpu0.rename.lookups                   19322090                       # Number of register rename lookups that rename has made (Count)
system.cpu0.rename.intLookups                 7223008                       # Number of integer rename lookups (Count)
system.cpu0.rename.fpLookups                   216398                       # Number of floating rename lookups (Count)
system.cpu0.rename.committedMaps              8295361                       # Number of HB maps that are committed (Count)
system.cpu0.rename.undoneMaps                 2373747                       # Number of HB maps that are undone due to squashing (Count)
system.cpu0.rename.serializing                    874                       # count of serializing insts renamed (Count)
system.cpu0.rename.tempSerializing                859                       # count of temporary serializing insts renamed (Count)
system.cpu0.rename.skidInsts                  1003430                       # count of insts added to the skid buffer (Count)
system.cpu0.rob.reads                        13485082                       # The number of ROB reads (Count)
system.cpu0.rob.writes                       10203562                       # The number of ROB writes (Count)
system.cpu0.thread_0.numInsts                 2322403                       # Number of Instructions committed (Count)
system.cpu0.thread_0.numOps                   3976313                       # Number of Ops committed (Count)
system.cpu0.thread_0.numMemRefs                     0                       # Number of Memory References (Count)
system.cpu0.workload.numSyscalls                   63                       # Number of system calls (Count)
system.cpu1.numCycles                         9505615                       # Number of cpu cycles simulated (Cycle)
system.cpu1.numWorkItemsStarted                     0                       # Number of work items this cpu started (Count)
system.cpu1.numWorkItemsCompleted                   0                       # Number of work items this cpu completed (Count)
system.cpu1.instsAdded                        5033934                       # Number of instructions added to the IQ (excludes non-spec) (Count)
system.cpu1.nonSpecInstsAdded                    1098                       # Number of non-speculative instructions added to the IQ (Count)
system.cpu1.instsIssued                       4667263                       # Number of instructions issued (Count)
system.cpu1.squashedInstsIssued                  2851                       # Number of squashed instructions issued (Count)
system.cpu1.squashedInstsExamined             1058719                       # Number of squashed instructions iterated over during squash; mainly for profiling (Count)
system.cpu1.squashedOperandsExamined          2283217                       # Number of squashed operands that are examined and possibly removed from graph (Count)
system.cpu1.squashedNonSpecRemoved                245                       # Number of squashed non-spec instructions that were removed (Count)
system.cpu1.numIssuedDist::samples            8444832                       # Number of insts issued each cycle (Count)
system.cpu1.numIssuedDist::mean              0.552677                       # Number of insts issued each cycle (Count)
system.cpu1.numIssuedDist::stdev             1.486622                       # Number of insts issued each cycle (Count)
system.cpu1.numIssuedDist::underflows               0      0.00%      0.00% # Number of insts issued each cycle (Count)
system.cpu1.numIssuedDist::0                  7112166     84.22%     84.22% # Number of insts issued each cycle (Count)
system.cpu1.numIssuedDist::1                   222438      2.63%     86.85% # Number of insts issued each cycle (Count)
system.cpu1.numIssuedDist::2                   261946      3.10%     89.96% # Number of insts issued each cycle (Count)
system.cpu1.numIssuedDist::3                   251329      2.98%     92.93% # Number of insts issued each cycle (Count)
system.cpu1.numIssuedDist::4                   203378      2.41%     95.34% # Number of insts issued each cycle (Count)
system.cpu1.numIssuedDist::5                   157132      1.86%     97.20% # Number of insts issued each cycle (Count)
system.cpu1.numIssuedDist::6                   126309      1.50%     98.70% # Number of insts issued each cycle (Count)
system.cpu1.numIssuedDist::7                    71152      0.84%     99.54% # Number of insts issued each cycle (Count)
system.cpu1.numIssuedDist::8                    38982      0.46%    100.00% # Number of insts issued each cycle (Count)
system.cpu1.numIssuedDist::overflows                0      0.00%    100.00% # Number of insts issued each cycle (Count)
system.cpu1.numIssuedDist::min_value                0                       # Number of insts issued each cycle (Count)
system.cpu1.numIssuedDist::max_value                8                       # Number of insts issued each cycle (Count)
system.cpu1.numIssuedDist::total              8444832                       # Number of insts issued each cycle (Count)
system.cpu1.statFuBusy::No_OpClass                  0      0.00%      0.00% # attempts to use FU when none available (Count)
system.cpu1.statFuBusy::IntAlu                  42317     63.57%     63.57% # attempts to use FU when none available (Count)
system.cpu1.statFuBusy::IntMult                     0      0.00%     63.57% # attempts to use FU when none available (Count)
system.cpu1.statFuBusy::IntDiv                      0      0.00%     63.57% # attempts to use FU when none available (Count)
system.cpu1.statFuBusy::FloatAdd                    0      0.00%     63.57% # attempts to use FU when none available (Count)
system.cpu1.statFuBusy::FloatCmp                    0      0.00%     63.57% # attempts to use FU when none available (Count)
system.cpu1.statFuBusy::FloatCvt                    0      0.00%     63.57% # attempts to use FU when none available (Count)
system.cpu1.statFuBusy::FloatMult                   0      0.00%     63.57% # attempts to use FU when none available (Count)
system.cpu1.statFuBusy::FloatMultAcc                0      0.00%     63.57% # attempts to use FU when none available (Count)
system.cpu1.statFuBusy::FloatDiv                    0      0.00%     63.57% # attempts to use FU when none available (Count)
system.cpu1.statFuBusy::FloatMisc                   0      0.00%     63.57% # attempts to use FU when none available (Count)
system.cpu1.statFuBusy::FloatSqrt                   0      0.00%     63.57% # attempts to use FU when none available (Count)
system.cpu1.statFuBusy::SimdAdd                     0      0.00%     63.57% # attempts to use FU when none available (Count)
system.cpu1.statFuBusy::SimdAddAcc                  0      0.00%     63.57% # attempts to use FU when none available (Count)
system.cpu1.statFuBusy::SimdAlu                   123      0.18%     63.75% # attempts to use FU when none available (Count)
system.cpu1.statFuBusy::SimdCmp                     0      0.00%     63.75% # attempts to use FU when none available (Count)
system.cpu1.statFuBusy::SimdCvt                   172      0.26%     64.01% # attempts to use FU when none available (Count)
system.cpu1.statFuBusy::SimdMisc                    0      0.00%     64.01% # attempts to use FU when none available (Count)
system.cpu1.statFuBusy::SimdMult                    0      0.00%     64.01% # attempts to use FU when none available (Count)
system.cpu1.statFuBusy::SimdMultAcc                 0      0.00%     64.01% # attempts to use FU when none available (Count)
system.cpu1.statFuBusy::SimdShift                 212      0.32%     64.33% # attempts to use FU when none available (Count)
system.cpu1.statFuBusy::SimdShiftAcc                0      0.00%     64.33% # attempts to use FU when none available (Count)
system.cpu1.statFuBusy::SimdDiv                     0      0.00%     64.33% # attempts to use FU when none available (Count)
system.cpu1.statFuBusy::SimdSqrt                    0      0.00%     64.33% # attempts to use FU when none available (Count)
system.cpu1.statFuBusy::SimdFloatAdd                0      0.00%     64.33% # attempts to use FU when none available (Count)
system.cpu1.statFuBusy::SimdFloatAlu                0      0.00%     64.33% # attempts to use FU when none available (Count)
system.cpu1.statFuBusy::SimdFloatCmp                0      0.00%     64.33% # attempts to use FU when none available (Count)
system.cpu1.statFuBusy::SimdFloatCvt                0      0.00%     64.33% # attempts to use FU when none available (Count)
system.cpu1.statFuBusy::SimdFloatDiv                0      0.00%     64.33% # attempts to use FU when none available (Count)
system.cpu1.statFuBusy::SimdFloatMisc               0      0.00%     64.33% # attempts to use FU when none available (Count)
system.cpu1.statFuBusy::SimdFloatMult               0      0.00%     64.33% # attempts to use FU when none available (Count)
system.cpu1.statFuBusy::SimdFloatMultAcc            0      0.00%     64.33% # attempts to use FU when none available (Count)
system.cpu1.statFuBusy::SimdFloatSqrt               0      0.00%     64.33% # attempts to use FU when none available (Count)
system.cpu1.statFuBusy::SimdReduceAdd               0      0.00%     64.33% # attempts to use FU when none available (Count)
system.cpu1.statFuBusy::SimdReduceAlu               0      0.00%     64.33% # attempts to use FU when none available (Count)
system.cpu1.statFuBusy::SimdReduceCmp               0      0.00%     64.33% # attempts to use FU when none available (Count)
system.cpu1.statFuBusy::SimdFloatReduceAdd            0      0.00%     64.33% # attempts to use FU when none available (Count)
system.cpu1.statFuBusy::SimdFloatReduceCmp            0      0.00%     64.33% # attempts to use FU when none available (Count)
system.cpu1.statFuBusy::SimdAes                     0      0.00%     64.33% # attempts to use FU when none available (Count)
system.cpu1.statFuBusy::SimdAesMix                  0      0.00%     64.33% # attempts to use FU when none available (Count)
system.cpu1.statFuBusy::SimdSha1Hash                0      0.00%     64.33% # attempts to use FU when none available (Count)
system.cpu1.statFuBusy::SimdSha1Hash2               0      0.00%     64.33% # attempts to use FU when none available (Count)
system.cpu1.statFuBusy::SimdSha256Hash              0      0.00%     64.33% # attempts to use FU when none available (Count)
system.cpu1.statFuBusy::SimdSha256Hash2             0      0.00%     64.33% # attempts to use FU when none available (Count)
system.cpu1.statFuBusy::SimdShaSigma2               0      0.00%     64.33% # attempts to use FU when none available (Count)
system.cpu1.statFuBusy::SimdShaSigma3               0      0.00%     64.33% # attempts to use FU when none available (Count)
system.cpu1.statFuBusy::SimdPredAlu                 0      0.00%     64.33% # attempts to use FU when none available (Count)
system.cpu1.statFuBusy::MemRead                 12055     18.11%     82.44% # attempts to use FU when none available (Count)
system.cpu1.statFuBusy::MemWrite                 7893     11.86%     94.30% # attempts to use FU when none available (Count)
system.cpu1.statFuBusy::FloatMemRead             1960      2.94%     97.24% # attempts to use FU when none available (Count)
system.cpu1.statFuBusy::FloatMemWrite            1837      2.76%    100.00% # attempts to use FU when none available (Count)
system.cpu1.statFuBusy::IprAccess                   0      0.00%    100.00% # attempts to use FU when none available (Count)
system.cpu1.statFuBusy::InstPrefetch                0      0.00%    100.00% # attempts to use FU when none available (Count)
system.cpu1.statIssuedInstType_0::No_OpClass        17559      0.38%      0.38% # Number of instructions issued per FU type, per thread (Count)
system.cpu1.statIssuedInstType_0::IntAlu      3592171     76.97%     77.34% # Number of instructions issued per FU type, per thread (Count)
system.cpu1.statIssuedInstType_0::IntMult           37      0.00%     77.34% # Number of instructions issued per FU type, per thread (Count)
system.cpu1.statIssuedInstType_0::IntDiv        38353      0.82%     78.16% # Number of instructions issued per FU type, per thread (Count)
system.cpu1.statIssuedInstType_0::FloatAdd         4383      0.09%     78.26% # Number of instructions issued per FU type, per thread (Count)
system.cpu1.statIssuedInstType_0::FloatCmp            0      0.00%     78.26% # Number of instructions issued per FU type, per thread (Count)
system.cpu1.statIssuedInstType_0::FloatCvt         1674      0.04%     78.29% # Number of instructions issued per FU type, per thread (Count)
system.cpu1.statIssuedInstType_0::FloatMult            0      0.00%     78.29% # Number of instructions issued per FU type, per thread (Count)
system.cpu1.statIssuedInstType_0::FloatMultAcc            0      0.00%     78.29% # Number of instructions issued per FU type, per thread (Count)
system.cpu1.statIssuedInstType_0::FloatDiv            0      0.00%     78.29% # Number of instructions issued per FU type, per thread (Count)
system.cpu1.statIssuedInstType_0::FloatMisc            0      0.00%     78.29% # Number of instructions issued per FU type, per thread (Count)
system.cpu1.statIssuedInstType_0::FloatSqrt            0      0.00%     78.29% # Number of instructions issued per FU type, per thread (Count)
system.cpu1.statIssuedInstType_0::SimdAdd         8523      0.18%     78.48% # Number of instructions issued per FU type, per thread (Count)
system.cpu1.statIssuedInstType_0::SimdAddAcc            0      0.00%     78.48% # Number of instructions issued per FU type, per thread (Count)
system.cpu1.statIssuedInstType_0::SimdAlu        17282      0.37%     78.85% # Number of instructions issued per FU type, per thread (Count)
system.cpu1.statIssuedInstType_0::SimdCmp            0      0.00%     78.85% # Number of instructions issued per FU type, per thread (Count)
system.cpu1.statIssuedInstType_0::SimdCvt        18906      0.41%     79.25% # Number of instructions issued per FU type, per thread (Count)
system.cpu1.statIssuedInstType_0::SimdMisc         8986      0.19%     79.44% # Number of instructions issued per FU type, per thread (Count)
system.cpu1.statIssuedInstType_0::SimdMult            0      0.00%     79.44% # Number of instructions issued per FU type, per thread (Count)
system.cpu1.statIssuedInstType_0::SimdMultAcc            0      0.00%     79.44% # Number of instructions issued per FU type, per thread (Count)
system.cpu1.statIssuedInstType_0::SimdShift         3020      0.06%     79.51% # Number of instructions issued per FU type, per thread (Count)
system.cpu1.statIssuedInstType_0::SimdShiftAcc            0      0.00%     79.51% # Number of instructions issued per FU type, per thread (Count)
system.cpu1.statIssuedInstType_0::SimdDiv            0      0.00%     79.51% # Number of instructions issued per FU type, per thread (Count)
system.cpu1.statIssuedInstType_0::SimdSqrt            0      0.00%     79.51% # Number of instructions issued per FU type, per thread (Count)
system.cpu1.statIssuedInstType_0::SimdFloatAdd            0      0.00%     79.51% # Number of instructions issued per FU type, per thread (Count)
system.cpu1.statIssuedInstType_0::SimdFloatAlu            0      0.00%     79.51% # Number of instructions issued per FU type, per thread (Count)
system.cpu1.statIssuedInstType_0::SimdFloatCmp            0      0.00%     79.51% # Number of instructions issued per FU type, per thread (Count)
system.cpu1.statIssuedInstType_0::SimdFloatCvt            0      0.00%     79.51% # Number of instructions issued per FU type, per thread (Count)
system.cpu1.statIssuedInstType_0::SimdFloatDiv            0      0.00%     79.51% # Number of instructions issued per FU type, per thread (Count)
system.cpu1.statIssuedInstType_0::SimdFloatMisc            0      0.00%     79.51% # Number of instructions issued per FU type, per thread (Count)
system.cpu1.statIssuedInstType_0::SimdFloatMult            0      0.00%     79.51% # Number of instructions issued per FU type, per thread (Count)
system.cpu1.statIssuedInstType_0::SimdFloatMultAcc            0      0.00%     79.51% # Number of instructions issued per FU type, per thread (Count)
system.cpu1.statIssuedInstType_0::SimdFloatSqrt            0      0.00%     79.51% # Number of instructions issued per FU type, per thread (Count)
system.cpu1.statIssuedInstType_0::SimdReduceAdd            0      0.00%     79.51% # Number of instructions issued per FU type, per thread (Count)
system.cpu1.statIssuedInstType_0::SimdReduceAlu            0      0.00%     79.51% # Number of instructions issued per FU type, per thread (Count)
system.cpu1.statIssuedInstType_0::SimdReduceCmp            0      0.00%     79.51% # Number of instructions issued per FU type, per thread (Count)
system.cpu1.statIssuedInstType_0::SimdFloatReduceAdd            0      0.00%     79.51% # Number of instructions issued per FU type, per thread (Count)
system.cpu1.statIssuedInstType_0::SimdFloatReduceCmp            0      0.00%     79.51% # Number of instructions issued per FU type, per thread (Count)
system.cpu1.statIssuedInstType_0::SimdAes            0      0.00%     79.51% # Number of instructions issued per FU type, per thread (Count)
system.cpu1.statIssuedInstType_0::SimdAesMix            0      0.00%     79.51% # Number of instructions issued per FU type, per thread (Count)
system.cpu1.statIssuedInstType_0::SimdSha1Hash            0      0.00%     79.51% # Number of instructions issued per FU type, per thread (Count)
system.cpu1.statIssuedInstType_0::SimdSha1Hash2            0      0.00%     79.51% # Number of instructions issued per FU type, per thread (Count)
system.cpu1.statIssuedInstType_0::SimdSha256Hash            0      0.00%     79.51% # Number of instructions issued per FU type, per thread (Count)
system.cpu1.statIssuedInstType_0::SimdSha256Hash2            0      0.00%     79.51% # Number of instructions issued per FU type, per thread (Count)
system.cpu1.statIssuedInstType_0::SimdShaSigma2            0      0.00%     79.51% # Number of instructions issued per FU type, per thread (Count)
system.cpu1.statIssuedInstType_0::SimdShaSigma3            0      0.00%     79.51% # Number of instructions issued per FU type, per thread (Count)
system.cpu1.statIssuedInstType_0::SimdPredAlu            0      0.00%     79.51% # Number of instructions issued per FU type, per thread (Count)
system.cpu1.statIssuedInstType_0::MemRead       620976     13.30%     92.81% # Number of instructions issued per FU type, per thread (Count)
system.cpu1.statIssuedInstType_0::MemWrite       233111      4.99%     97.81% # Number of instructions issued per FU type, per thread (Count)
system.cpu1.statIssuedInstType_0::FloatMemRead        59081      1.27%     99.07% # Number of instructions issued per FU type, per thread (Count)
system.cpu1.statIssuedInstType_0::FloatMemWrite        43201      0.93%    100.00% # Number of instructions issued per FU type, per thread (Count)
system.cpu1.statIssuedInstType_0::IprAccess            0      0.00%    100.00% # Number of instructions issued per FU type, per thread (Count)
system.cpu1.statIssuedInstType_0::InstPrefetch            0      0.00%    100.00% # Number of instructions issued per FU type, per thread (Count)
system.cpu1.statIssuedInstType_0::total       4667263                       # Number of instructions issued per FU type, per thread (Count)
system.cpu1.issueRate                        0.491001                       # Inst issue rate ((Count/Cycle))
system.cpu1.fuBusy                              66569                       # FU busy when requested (Count)
system.cpu1.fuBusyRate                       0.014263                       # FU busy rate (busy events/executed inst) ((Count/Count))
system.cpu1.intInstQueueReads                17511747                       # Number of integer instruction queue reads (Count)
system.cpu1.intInstQueueWrites                5864381                       # Number of integer instruction queue writes (Count)
system.cpu1.intInstQueueWakeupAccesses        4445019                       # Number of integer instruction queue wakeup accesses (Count)
system.cpu1.fpInstQueueReads                   337031                       # Number of floating instruction queue reads (Count)
system.cpu1.fpInstQueueWrites                  229521                       # Number of floating instruction queue writes (Count)
system.cpu1.fpInstQueueWakeupAccesses          162323                       # Number of floating instruction queue wakeup accesses (Count)
system.cpu1.vecInstQueueReads                       0                       # Number of vector instruction queue reads (Count)
system.cpu1.vecInstQueueWrites                      0                       # Number of vector instruction queue writes (Count)
system.cpu1.vecInstQueueWakeupAccesses              0                       # Number of vector instruction queue wakeup accesses (Count)
system.cpu1.intAluAccesses                    4545751                       # Number of integer alu accesses (Count)
system.cpu1.fpAluAccesses                      170522                       # Number of floating point alu accesses (Count)
system.cpu1.vecAluAccesses                          0                       # Number of vector alu accesses (Count)
system.cpu1.numInsts                          4636660                       # Number of executed instructions (Count)
system.cpu1.numLoadInsts                       672194                       # Number of load instructions executed (Count)
system.cpu1.numSquashedInsts                    30603                       # Number of squashed instructions skipped in execute (Count)
system.cpu1.numSwp                                  0                       # Number of swp insts executed (Count)
system.cpu1.numNop                                  0                       # Number of nop insts executed (Count)
system.cpu1.numRefs                            946413                       # Number of memory reference insts executed (Count)
system.cpu1.numBranches                        399127                       # Number of branches executed (Count)
[...]
system.ruby.network.ext_out_link_utilization      4217239                       (Unspecified)
system.ruby.network.flit_network_latency | 80174326000                       |210023673000                       | 19617543500                       (Unspecified)
system.ruby.network.flit_queueing_latency |  2185862000                       |  2274164000                       |   148709500                       (Unspecified)
system.ruby.network.flits_injected       |      999866     23.71%     23.71% |     2919964     69.24%     92.95% |      297420      7.05%    100.00% (Unspecified)
system.ruby.network.flits_injected::total      4217250                       (Unspecified)
system.ruby.network.flits_received       |      999866     23.71%     23.71% |     2919954     69.24%     92.95% |      297419      7.05%    100.00% (Unspecified)
system.ruby.network.flits_received::total      4217239                       (Unspecified)
system.ruby.network.int_link_utilization     10459482                       (Unspecified)
system.ruby.network.packet_network_latency | 59671466500                       | 69380572500                       | 19617543500                       (Unspecified)
system.ruby.network.packet_queueing_latency |  1784422000                       |   590224000                       |   148709500                       (Unspecified)
system.ruby.network.packets_injected     |      815446     42.29%     42.29% |      815444     42.29%     84.58% |      297420     15.42%    100.00% (Unspecified)
system.ruby.network.packets_injected::total      1928310                       (Unspecified)
system.ruby.network.packets_received     |      815446     42.29%     42.29% |      815442     42.29%     84.58% |      297419     15.42%    100.00% (Unspecified)
system.ruby.network.packets_received::total      1928307                       (Unspecified)
system.ruby.network.routers00.Var_1                 0                       (Unspecified)
system.ruby.network.routers00.Var_2                 0                       (Unspecified)
system.ruby.network.routers00.Var_3                 0                       (Unspecified)
system.ruby.network.routers00.all_counts            0                       (Unspecified)
system.ruby.network.routers00.buffer_reads       668692                       (Unspecified)
system.ruby.network.routers00.buffer_writes       668692                       (Unspecified)
system.ruby.network.routers00.crossbar_activity       668692                       (Unspecified)
system.ruby.network.routers00.detour_counts            0                       (Unspecified)
system.ruby.network.routers00.regular_var            0                       (Unspecified)
system.ruby.network.routers00.risk_counts            0                       (Unspecified)
system.ruby.network.routers00.sw_input_arbiter_activity       673491                       (Unspecified)
system.ruby.network.routers00.sw_output_arbiter_activity       668692                       (Unspecified)
system.ruby.network.routers01.Var_1                 0                       (Unspecified)
system.ruby.network.routers01.Var_2                 0                       (Unspecified)
system.ruby.network.routers01.Var_3                 0                       (Unspecified)
system.ruby.network.routers01.all_counts            0                       (Unspecified)
system.ruby.network.routers01.buffer_reads       933689                       (Unspecified)
system.ruby.network.routers01.buffer_writes       933689                       (Unspecified)
system.ruby.network.routers01.crossbar_activity       933689                       (Unspecified)
system.ruby.network.routers01.detour_counts            0                       (Unspecified)
system.ruby.network.routers01.regular_var            0                       (Unspecified)
system.ruby.network.routers01.risk_counts            0                       (Unspecified)
system.ruby.network.routers01.sw_input_arbiter_activity       944275                       (Unspecified)
system.ruby.network.routers01.sw_output_arbiter_activity       933689                       (Unspecified)
system.ruby.network.routers02.Var_1                 0                       (Unspecified)
system.ruby.network.routers02.Var_2                 0                       (Unspecified)
system.ruby.network.routers02.Var_3                 0                       (Unspecified)
system.ruby.network.routers02.all_counts            0                       (Unspecified)
system.ruby.network.routers02.buffer_reads       935490                       (Unspecified)
system.ruby.network.routers02.buffer_writes       935490                       (Unspecified)
system.ruby.network.routers02.crossbar_activity       935490                       (Unspecified)
system.ruby.network.routers02.detour_counts            0                       (Unspecified)
system.ruby.network.routers02.regular_var            0                       (Unspecified)
system.ruby.network.routers02.risk_counts            0                       (Unspecified)
system.ruby.network.routers02.sw_input_arbiter_activity       945732                       (Unspecified)
system.ruby.network.routers02.sw_output_arbiter_activity       935490                       (Unspecified)
system.ruby.network.routers03.Var_1                 0                       (Unspecified)
system.ruby.network.routers03.Var_2                 0                       (Unspecified)
system.ruby.network.routers03.Var_3                 0                       (Unspecified)
system.ruby.network.routers03.all_counts            0                       (Unspecified)
system.ruby.network.routers03.buffer_reads       658145                       (Unspecified)
system.ruby.network.routers03.buffer_writes       658145                       (Unspecified)
system.ruby.network.routers03.crossbar_activity       658145                       (Unspecified)
system.ruby.network.routers03.detour_counts            0                       (Unspecified)
system.ruby.network.routers03.regular_var            0                       (Unspecified)
system.ruby.network.routers03.risk_counts            0                       (Unspecified)
system.ruby.network.routers03.sw_input_arbiter_activity       662463                       (Unspecified)
system.ruby.network.routers03.sw_output_arbiter_activity       658145                       (Unspecified)
system.ruby.network.routers04.Var_1                 0                       (Unspecified)
system.ruby.network.routers04.Var_2                 0                       (Unspecified)
system.ruby.network.routers04.Var_3                 0                       (Unspecified)
system.ruby.network.routers04.all_counts            0                       (Unspecified)
system.ruby.network.routers04.buffer_reads       913926                       (Unspecified)
system.ruby.network.routers04.buffer_writes       913926                       (Unspecified)
system.ruby.network.routers04.crossbar_activity       913926                       (Unspecified)
system.ruby.network.routers04.detour_counts            0                       (Unspecified)
system.ruby.network.routers04.regular_var            0                       (Unspecified)
system.ruby.network.routers04.risk_counts            0                       (Unspecified)
system.ruby.network.routers04.sw_input_arbiter_activity       923739                       (Unspecified)
system.ruby.network.routers04.sw_output_arbiter_activity       913926                       (Unspecified)
system.ruby.network.routers05.Var_1                 0                       (Unspecified)
system.ruby.network.routers05.Var_2                 0                       (Unspecified)
system.ruby.network.routers05.Var_3                 0                       (Unspecified)
system.ruby.network.routers05.all_counts            0                       (Unspecified)
system.ruby.network.routers05.buffer_reads      1178768                       (Unspecified)
system.ruby.network.routers05.buffer_writes      1178768                       (Unspecified)
system.ruby.network.routers05.crossbar_activity      1178768                       (Unspecified)
system.ruby.network.routers05.detour_counts            0                       (Unspecified)
system.ruby.network.routers05.regular_var            0                       (Unspecified)
system.ruby.network.routers05.risk_counts            0                       (Unspecified)
system.ruby.network.routers05.sw_input_arbiter_activity      1194256                       (Unspecified)
system.ruby.network.routers05.sw_output_arbiter_activity      1178768                       (Unspecified)
system.ruby.network.routers06.Var_1                 0                       (Unspecified)
system.ruby.network.routers06.Var_2                 0                       (Unspecified)
system.ruby.network.routers06.Var_3                 0                       (Unspecified)
system.ruby.network.routers06.all_counts            0                       (Unspecified)
system.ruby.network.routers06.buffer_reads      1177890                       (Unspecified)
system.ruby.network.routers06.buffer_writes      1177890                       (Unspecified)
system.ruby.network.routers06.crossbar_activity      1177890                       (Unspecified)
system.ruby.network.routers06.detour_counts            0                       (Unspecified)
system.ruby.network.routers06.regular_var            0                       (Unspecified)
system.ruby.network.routers06.risk_counts            0                       (Unspecified)
system.ruby.network.routers06.sw_input_arbiter_activity      1194336                       (Unspecified)
system.ruby.network.routers06.sw_output_arbiter_activity      1177890                       (Unspecified)
system.ruby.network.routers07.Var_1                 0                       (Unspecified)
system.ruby.network.routers07.Var_2                 0                       (Unspecified)
system.ruby.network.routers07.Var_3                 0                       (Unspecified)
system.ruby.network.routers07.all_counts            0                       (Unspecified)
system.ruby.network.routers07.buffer_reads       900845                       (Unspecified)
system.ruby.network.routers07.buffer_writes       900845                       (Unspecified)
system.ruby.network.routers07.crossbar_activity       900845                       (Unspecified)
system.ruby.network.routers07.detour_counts            0                       (Unspecified)
system.ruby.network.routers07.regular_var            0                       (Unspecified)
system.ruby.network.routers07.risk_counts            0                       (Unspecified)
system.ruby.network.routers07.sw_input_arbiter_activity       910864                       (Unspecified)
system.ruby.network.routers07.sw_output_arbiter_activity       900845                       (Unspecified)
system.ruby.network.routers08.Var_1                 0                       (Unspecified)
system.ruby.network.routers08.Var_2                 0                       (Unspecified)
system.ruby.network.routers08.Var_3                 0                       (Unspecified)
system.ruby.network.routers08.all_counts            0                       (Unspecified)
system.ruby.network.routers08.buffer_reads       911167                       (Unspecified)
system.ruby.network.routers08.buffer_writes       911167                       (Unspecified)
system.ruby.network.routers08.crossbar_activity       911167                       (Unspecified)
system.ruby.network.routers08.detour_counts            0                       (Unspecified)
system.ruby.network.routers08.regular_var            0                       (Unspecified)
system.ruby.network.routers08.risk_counts            0                       (Unspecified)
system.ruby.network.routers08.sw_input_arbiter_activity       920852                       (Unspecified)
system.ruby.network.routers08.sw_output_arbiter_activity       911167                       (Unspecified)
system.ruby.network.routers09.Var_1                 0                       (Unspecified)
system.ruby.network.routers09.Var_2                 0                       (Unspecified)
system.ruby.network.routers09.Var_3                 0                       (Unspecified)
system.ruby.network.routers09.all_counts            0                       (Unspecified)
system.ruby.network.routers09.buffer_reads      1180011                       (Unspecified)
system.ruby.network.routers09.buffer_writes      1180011                       (Unspecified)
system.ruby.network.routers09.crossbar_activity      1180011                       (Unspecified)
system.ruby.network.routers09.detour_counts            0                       (Unspecified)
system.ruby.network.routers09.regular_var            0                       (Unspecified)
system.ruby.network.routers09.risk_counts            0                       (Unspecified)
system.ruby.network.routers09.sw_input_arbiter_activity      1195663                       (Unspecified)
system.ruby.network.routers09.sw_output_arbiter_activity      1180011                       (Unspecified)
system.ruby.network.routers10.Var_1                 0                       (Unspecified)
system.ruby.network.routers10.Var_2                 0                       (Unspecified)
system.ruby.network.routers10.Var_3                 0                       (Unspecified)
system.ruby.network.routers10.all_counts            0                       (Unspecified)
system.ruby.network.routers10.buffer_reads      1176835                       (Unspecified)
system.ruby.network.routers10.buffer_writes      1176835                       (Unspecified)
system.ruby.network.routers10.crossbar_activity      1176835                       (Unspecified)
system.ruby.network.routers10.detour_counts            0                       (Unspecified)
system.ruby.network.routers10.regular_var            0                       (Unspecified)
system.ruby.network.routers10.risk_counts            0                       (Unspecified)
system.ruby.network.routers10.sw_input_arbiter_activity      1192159                       (Unspecified)
system.ruby.network.routers10.sw_output_arbiter_activity      1176835                       (Unspecified)
system.ruby.network.routers11.Var_1                 0                       (Unspecified)
system.ruby.network.routers11.Var_2                 0                       (Unspecified)
system.ruby.network.routers11.Var_3                 0                       (Unspecified)
system.ruby.network.routers11.all_counts            0                       (Unspecified)
system.ruby.network.routers11.buffer_reads       897278                       (Unspecified)
system.ruby.network.routers11.buffer_writes       897278                       (Unspecified)
system.ruby.network.routers11.crossbar_activity       897278                       (Unspecified)
system.ruby.network.routers11.detour_counts            0                       (Unspecified)
system.ruby.network.routers11.regular_var            0                       (Unspecified)
system.ruby.network.routers11.risk_counts            0                       (Unspecified)
system.ruby.network.routers11.sw_input_arbiter_activity       906658                       (Unspecified)
system.ruby.network.routers11.sw_output_arbiter_activity       897278                       (Unspecified)
system.ruby.network.routers12.Var_1                 0                       (Unspecified)
system.ruby.network.routers12.Var_2                 0                       (Unspecified)
system.ruby.network.routers12.Var_3                 0                       (Unspecified)
system.ruby.network.routers12.all_counts            0                       (Unspecified)
system.ruby.network.routers12.buffer_reads       656064                       (Unspecified)
system.ruby.network.routers12.buffer_writes       656064                       (Unspecified)
system.ruby.network.routers12.crossbar_activity       656064                       (Unspecified)
system.ruby.network.routers12.detour_counts            0                       (Unspecified)
system.ruby.network.routers12.regular_var            0                       (Unspecified)
system.ruby.network.routers12.risk_counts            0                       (Unspecified)
system.ruby.network.routers12.sw_input_arbiter_activity       660485                       (Unspecified)
system.ruby.network.routers12.sw_output_arbiter_activity       656064                       (Unspecified)
system.ruby.network.routers13.Var_1                 0                       (Unspecified)
system.ruby.network.routers13.Var_2                 0                       (Unspecified)
system.ruby.network.routers13.Var_3                 0                       (Unspecified)
system.ruby.network.routers13.all_counts            0                       (Unspecified)
system.ruby.network.routers13.buffer_reads       922164                       (Unspecified)
system.ruby.network.routers13.buffer_writes       922164                       (Unspecified)
system.ruby.network.routers13.crossbar_activity       922164                       (Unspecified)
system.ruby.network.routers13.detour_counts            0                       (Unspecified)
system.ruby.network.routers13.regular_var            0                       (Unspecified)
system.ruby.network.routers13.risk_counts            0                       (Unspecified)
system.ruby.network.routers13.sw_input_arbiter_activity       932059                       (Unspecified)
system.ruby.network.routers13.sw_output_arbiter_activity       922164                       (Unspecified)
system.ruby.network.routers14.Var_1                 0                       (Unspecified)
system.ruby.network.routers14.Var_2                 0                       (Unspecified)
system.ruby.network.routers14.Var_3                 0                       (Unspecified)
system.ruby.network.routers14.all_counts            0                       (Unspecified)
system.ruby.network.routers14.buffer_reads       916573                       (Unspecified)
system.ruby.network.routers14.buffer_writes       916573                       (Unspecified)
system.ruby.network.routers14.crossbar_activity       916573                       (Unspecified)
system.ruby.network.routers14.detour_counts            0                       (Unspecified)
system.ruby.network.routers14.regular_var            0                       (Unspecified)
system.ruby.network.routers14.risk_counts            0                       (Unspecified)
system.ruby.network.routers14.sw_input_arbiter_activity       926319                       (Unspecified)
system.ruby.network.routers14.sw_output_arbiter_activity       916573                       (Unspecified)
system.ruby.network.routers15.Var_1                 0                       (Unspecified)
system.ruby.network.routers15.Var_2                 0                       (Unspecified)
system.ruby.network.routers15.Var_3                 0                       (Unspecified)
system.ruby.network.routers15.all_counts            0                       (Unspecified)
system.ruby.network.routers15.buffer_reads       649185                       (Unspecified)
system.ruby.network.routers15.buffer_writes       649185                       (Unspecified)
system.ruby.network.routers15.crossbar_activity       649185                       (Unspecified)
system.ruby.network.routers15.detour_counts            0                       (Unspecified)
system.ruby.network.routers15.regular_var            0                       (Unspecified)
system.ruby.network.routers15.risk_counts            0                       (Unspecified)
system.ruby.network.routers15.sw_input_arbiter_activity       653423                       (Unspecified)
system.ruby.network.routers15.sw_output_arbiter_activity       649185                       (Unspecified)

---------- End Simulation Statistics   ----------
