
---------- Begin Simulation Statistics ----------
simSeconds                                   0.006106                       # Number of seconds simulated (Second)
simTicks                                   6105761500                       # Number of ticks simulated (Tick)
finalTick                                  6105761500                       # Number of ticks from beginning of simulation (restored from checkpoints and never reset) (Tick)
simFreq                                  1000000000000                       # The number of ticks per simulated second ((Tick/Second))
hostSeconds                                   1417.47                       # Real time elapsed on the host (Second)
hostTickRate                                  4307496                       # The number of ticks simulated per host second (ticks/s) ((Tick/Second))
hostMemory                                   11458216                       # Number of bytes of host memory used (Byte)
simInsts                                     81849440                       # Number of instructions simulated (Count)
simOps                                      124823168                       # Number of ops (including micro ops) simulated (Count)
hostInstRate                                    57743                       # Simulator instruction rate (inst/s) ((Count/Second))
hostOpRate                                      88060                       # Simulator op (including micro ops) rate (op/s) ((Count/Second))
system.clk_domain.clock                          1000                       # Clock period in ticks (Tick)
system.cpu0.numCycles                        12117879                       # Number of cpu cycles simulated (Cycle)
system.cpu0.numWorkItemsStarted                     0                       # Number of work items this cpu started (Count)
system.cpu0.numWorkItemsCompleted                   0                       # Number of work items this cpu completed (Count)
system.cpu0.instsAdded                        8877090                       # Number of instructions added to the IQ (excludes non-spec) (Count)
system.cpu0.nonSpecInstsAdded                    1082                       # Number of non-speculative instructions added to the IQ (Count)
system.cpu0.instsIssued                       8501718                       # Number of instructions issued (Count)
system.cpu0.squashedInstsIssued                  2820                       # Number of squashed instructions issued (Count)
system.cpu0.squashedInstsExamined             1076724                       # Number of squashed instructions iterated over during squash; mainly for profiling (Count)
system.cpu0.squashedOperandsExamined          2332372                       # Number of squashed operands that are examined and possibly removed from graph (Count)
system.cpu0.squashedNonSpecRemoved                229                       # Number of squashed non-spec instructions that were removed (Count)
system.cpu0.numIssuedDist::samples           10945049                       # Number of insts issued each cycle (Count)
system.cpu0.numIssuedDist::mean              0.776764                       # Number of insts issued each cycle (Count)
system.cpu0.numIssuedDist::stdev             1.606444                       # Number of insts issued each cycle (Count)
system.cpu0.numIssuedDist::underflows               0      0.00%      0.00% # Number of insts issued each cycle (Count)
system.cpu0.numIssuedDist::0                  8019167     73.27%     73.27% # Number of insts issued each cycle (Count)
system.cpu0.numIssuedDist::1                   859067      7.85%     81.12% # Number of insts issued each cycle (Count)
system.cpu0.numIssuedDist::2                   664994      6.08%     87.19% # Number of insts issued each cycle (Count)
system.cpu0.numIssuedDist::3                   428409      3.91%     91.11% # Number of insts issued each cycle (Count)
system.cpu0.numIssuedDist::4                   398466      3.64%     94.75% # Number of insts issued each cycle (Count)
system.cpu0.numIssuedDist::5                   234695      2.14%     96.89% # Number of insts issued each cycle (Count)
system.cpu0.numIssuedDist::6                   192179      1.76%     98.65% # Number of insts issued each cycle (Count)
system.cpu0.numIssuedDist::7                    77553      0.71%     99.36% # Number of insts issued each cycle (Count)
system.cpu0.numIssuedDist::8                    70519      0.64%    100.00% # Number of insts issued each cycle (Count)
system.cpu0.numIssuedDist::overflows                0      0.00%    100.00% # Number of insts issued each cycle (Count)
system.cpu0.numIssuedDist::min_value                0                       # Number of insts issued each cycle (Count)
system.cpu0.numIssuedDist::max_value                8                       # Number of insts issued each cycle (Count)
system.cpu0.numIssuedDist::total             10945049                       # Number of insts issued each cycle (Count)
system.cpu0.statFuBusy::No_OpClass                  0      0.00%      0.00% # attempts to use FU when none available (Count)
system.cpu0.statFuBusy::IntAlu                  44094     48.42%     48.42% # attempts to use FU when none available (Count)
system.cpu0.statFuBusy::IntMult                     0      0.00%     48.42% # attempts to use FU when none available (Count)
system.cpu0.statFuBusy::IntDiv                      0      0.00%     48.42% # attempts to use FU when none available (Count)
system.cpu0.statFuBusy::FloatAdd                    0      0.00%     48.42% # attempts to use FU when none available (Count)
system.cpu0.statFuBusy::FloatCmp                    0      0.00%     48.42% # attempts to use FU when none available (Count)
system.cpu0.statFuBusy::FloatCvt                    2      0.00%     48.43% # attempts to use FU when none available (Count)
system.cpu0.statFuBusy::FloatMult                   0      0.00%     48.43% # attempts to use FU when none available (Count)
system.cpu0.statFuBusy::FloatMultAcc                0      0.00%     48.43% # attempts to use FU when none available (Count)
system.cpu0.statFuBusy::FloatDiv                    0      0.00%     48.43% # attempts to use FU when none available (Count)
system.cpu0.statFuBusy::FloatMisc                   0      0.00%     48.43% # attempts to use FU when none available (Count)
system.cpu0.statFuBusy::FloatSqrt                   0      0.00%     48.43% # attempts to use FU when none available (Count)
system.cpu0.statFuBusy::SimdAdd                     0      0.00%     48.43% # attempts to use FU when none available (Count)
system.cpu0.statFuBusy::SimdAddAcc                  0      0.00%     48.43% # attempts to use FU when none available (Count)
system.cpu0.statFuBusy::SimdAlu                   122      0.13%     48.56% # attempts to use FU when none available (Count)
system.cpu0.statFuBusy::SimdCmp                     0      0.00%     48.56% # attempts to use FU when none available (Count)
system.cpu0.statFuBusy::SimdCvt                   138      0.15%     48.71% # attempts to use FU when none available (Count)
system.cpu0.statFuBusy::SimdMisc                    0      0.00%     48.71% # attempts to use FU when none available (Count)
system.cpu0.statFuBusy::SimdMult                    0      0.00%     48.71% # attempts to use FU when none available (Count)
system.cpu0.statFuBusy::SimdMultAcc                 0      0.00%     48.71% # attempts to use FU when none available (Count)
system.cpu0.statFuBusy::SimdShift                 140      0.15%     48.86% # attempts to use FU when none available (Count)
system.cpu0.statFuBusy::SimdShiftAcc                0      0.00%     48.86% # attempts to use FU when none available (Count)
system.cpu0.statFuBusy::SimdDiv                     0      0.00%     48.86% # attempts to use FU when none available (Count)
system.cpu0.statFuBusy::SimdSqrt                    0      0.00%     48.86% # attempts to use FU when none available (Count)
system.cpu0.statFuBusy::SimdFloatAdd                0      0.00%     48.86% # attempts to use FU when none available (Count)
system.cpu0.statFuBusy::SimdFloatAlu                0      0.00%     48.86% # attempts to use FU when none available (Count)
system.cpu0.statFuBusy::SimdFloatCmp                0      0.00%     48.86% # attempts to use FU when none available (Count)
system.cpu0.statFuBusy::SimdFloatCvt                0      0.00%     48.86% # attempts to use FU when none available (Count)
system.cpu0.statFuBusy::SimdFloatDiv                0      0.00%     48.86% # attempts to use FU when none available (Count)
system.cpu0.statFuBusy::SimdFloatMisc               0      0.00%     48.86% # attempts to use FU when none available (Count)
system.cpu0.statFuBusy::SimdFloatMult               0      0.00%     48.86% # attempts to use FU when none available (Count)
system.cpu0.statFuBusy::SimdFloatMultAcc            0      0.00%     48.86% # attempts to use FU when none available (Count)
system.cpu0.statFuBusy::SimdFloatSqrt               0      0.00%     48.86% # attempts to use FU when none available (Count)
system.cpu0.statFuBusy::SimdReduceAdd               0      0.00%     48.86% # attempts to use FU when none available (Count)
system.cpu0.statFuBusy::SimdReduceAlu               0      0.00%     48.86% # attempts to use FU when none available (Count)
system.cpu0.statFuBusy::SimdReduceCmp               0      0.00%     48.86% # attempts to use FU when none available (Count)
system.cpu0.statFuBusy::SimdFloatReduceAdd            0      0.00%     48.86% # attempts to use FU when none available (Count)
system.cpu0.statFuBusy::SimdFloatReduceCmp            0      0.00%     48.86% # attempts to use FU when none available (Count)
system.cpu0.statFuBusy::SimdAes                     0      0.00%     48.86% # attempts to use FU when none available (Count)
system.cpu0.statFuBusy::SimdAesMix                  0      0.00%     48.86% # attempts to use FU when none available (Count)
system.cpu0.statFuBusy::SimdSha1Hash                0      0.00%     48.86% # attempts to use FU when none available (Count)
system.cpu0.statFuBusy::SimdSha1Hash2               0      0.00%     48.86% # attempts to use FU when none available (Count)
system.cpu0.statFuBusy::SimdSha256Hash              0      0.00%     48.86% # attempts to use FU when none available (Count)
system.cpu0.statFuBusy::SimdSha256Hash2             0      0.00%     48.86% # attempts to use FU when none available (Count)
system.cpu0.statFuBusy::SimdShaSigma2               0      0.00%     48.86% # attempts to use FU when none available (Count)
system.cpu0.statFuBusy::SimdShaSigma3               0      0.00%     48.86% # attempts to use FU when none available (Count)
system.cpu0.statFuBusy::SimdPredAlu                 0      0.00%     48.86% # attempts to use FU when none available (Count)
system.cpu0.statFuBusy::MemRead                 12204     13.40%     62.27% # attempts to use FU when none available (Count)
system.cpu0.statFuBusy::MemWrite                29627     32.54%     94.80% # attempts to use FU when none available (Count)
system.cpu0.statFuBusy::FloatMemRead             2612      2.87%     97.67% # attempts to use FU when none available (Count)
system.cpu0.statFuBusy::FloatMemWrite            2121      2.33%    100.00% # attempts to use FU when none available (Count)
system.cpu0.statFuBusy::IprAccess                   0      0.00%    100.00% # attempts to use FU when none available (Count)
system.cpu0.statFuBusy::InstPrefetch                0      0.00%    100.00% # attempts to use FU when none available (Count)
system.cpu0.statIssuedInstType_0::No_OpClass        18193      0.21%      0.21% # Number of instructions issued per FU type, per thread (Count)
system.cpu0.statIssuedInstType_0::IntAlu      5697176     67.01%     67.23% # Number of instructions issued per FU type, per thread (Count)
system.cpu0.statIssuedInstType_0::IntMult           35      0.00%     67.23% # Number of instructions issued per FU type, per thread (Count)
system.cpu0.statIssuedInstType_0::IntDiv        38318      0.45%     67.68% # Number of instructions issued per FU type, per thread (Count)
system.cpu0.statIssuedInstType_0::FloatAdd         4373      0.05%     67.73% # Number of instructions issued per FU type, per thread (Count)
system.cpu0.statIssuedInstType_0::FloatCmp            0      0.00%     67.73% # Number of instructions issued per FU type, per thread (Count)
system.cpu0.statIssuedInstType_0::FloatCvt         1674      0.02%     67.75% # Number of instructions issued per FU type, per thread (Count)
system.cpu0.statIssuedInstType_0::FloatMult            0      0.00%     67.75% # Number of instructions issued per FU type, per thread (Count)
system.cpu0.statIssuedInstType_0::FloatMultAcc            0      0.00%     67.75% # Number of instructions issued per FU type, per thread (Count)
system.cpu0.statIssuedInstType_0::FloatDiv            0      0.00%     67.75% # Number of instructions issued per FU type, per thread (Count)
system.cpu0.statIssuedInstType_0::FloatMisc            0      0.00%     67.75% # Number of instructions issued per FU type, per thread (Count)
system.cpu0.statIssuedInstType_0::FloatSqrt            0      0.00%     67.75% # Number of instructions issued per FU type, per thread (Count)
system.cpu0.statIssuedInstType_0::SimdAdd         8375      0.10%     67.85% # Number of instructions issued per FU type, per thread (Count)
system.cpu0.statIssuedInstType_0::SimdAddAcc            0      0.00%     67.85% # Number of instructions issued per FU type, per thread (Count)
system.cpu0.statIssuedInstType_0::SimdAlu        16988      0.20%     68.05% # Number of instructions issued per FU type, per thread (Count)
system.cpu0.statIssuedInstType_0::SimdCmp            0      0.00%     68.05% # Number of instructions issued per FU type, per thread (Count)
system.cpu0.statIssuedInstType_0::SimdCvt        18678      0.22%     68.27% # Number of instructions issued per FU type, per thread (Count)
system.cpu0.statIssuedInstType_0::SimdMisc         8832      0.10%     68.37% # Number of instructions issued per FU type, per thread (Count)
system.cpu0.statIssuedInstType_0::SimdMult            0      0.00%     68.37% # Number of instructions issued per FU type, per thread (Count)
system.cpu0.statIssuedInstType_0::SimdMultAcc            0      0.00%     68.37% # Number of instructions issued per FU type, per thread (Count)
system.cpu0.statIssuedInstType_0::SimdShift         2557      0.03%     68.40% # Number of instructions issued per FU type, per thread (Count)
system.cpu0.statIssuedInstType_0::SimdShiftAcc            0      0.00%     68.40% # Number of instructions issued per FU type, per thread (Count)
system.cpu0.statIssuedInstType_0::SimdDiv            0      0.00%     68.40% # Number of instructions issued per FU type, per thread (Count)
system.cpu0.statIssuedInstType_0::SimdSqrt            0      0.00%     68.40% # Number of instructions issued per FU type, per thread (Count)
system.cpu0.statIssuedInstType_0::SimdFloatAdd            0      0.00%     68.40% # Number of instructions issued per FU type, per thread (Count)
system.cpu0.statIssuedInstType_0::SimdFloatAlu            0      0.00%     68.40% # Number of instructions issued per FU type, per thread (Count)
system.cpu0.statIssuedInstType_0::SimdFloatCmp            0      0.00%     68.40% # Number of instructions issued per FU type, per thread (Count)
system.cpu0.statIssuedInstType_0::SimdFloatCvt            0      0.00%     68.40% # Number of instructions issued per FU type, per thread (Count)
system.cpu0.statIssuedInstType_0::SimdFloatDiv            0      0.00%     68.40% # Number of instructions issued per FU type, per thread (Count)
system.cpu0.statIssuedInstType_0::SimdFloatMisc            0      0.00%     68.40% # Number of instructions issued per FU type, per thread (Count)
system.cpu0.statIssuedInstType_0::SimdFloatMult            0      0.00%     68.40% # Number of instructions issued per FU type, per thread (Count)
system.cpu0.statIssuedInstType_0::SimdFloatMultAcc            0      0.00%     68.40% # Number of instructions issued per FU type, per thread (Count)
system.cpu0.statIssuedInstType_0::SimdFloatSqrt            0      0.00%     68.40% # Number of instructions issued per FU type, per thread (Count)
system.cpu0.statIssuedInstType_0::SimdReduceAdd            0      0.00%     68.40% # Number of instructions issued per FU type, per thread (Count)
system.cpu0.statIssuedInstType_0::SimdReduceAlu            0      0.00%     68.40% # Number of instructions issued per FU type, per thread (Count)
system.cpu0.statIssuedInstType_0::SimdReduceCmp            0      0.00%     68.40% # Number of instructions issued per FU type, per thread (Count)
system.cpu0.statIssuedInstType_0::SimdFloatReduceAdd            0      0.00%     68.40% # Number of instructions issued per FU type, per thread (Count)
system.cpu0.statIssuedInstType_0::SimdFloatReduceCmp            0      0.00%     68.40% # Number of instructions issued per FU type, per thread (Count)
system.cpu0.statIssuedInstType_0::SimdAes            0      0.00%     68.40% # Number of instructions issued per FU type, per thread (Count)
system.cpu0.statIssuedInstType_0::SimdAesMix            0      0.00%     68.40% # Number of instructions issued per FU type, per thread (Count)
system.cpu0.statIssuedInstType_0::SimdSha1Hash            0      0.00%     68.40% # Number of instructions issued per FU type, per thread (Count)
system.cpu0.statIssuedInstType_0::SimdSha1Hash2            0      0.00%     68.40% # Number of instructions issued per FU type, per thread (Count)
system.cpu0.statIssuedInstType_0::SimdSha256Hash            0      0.00%     68.40% # Number of instructions issued per FU type, per thread (Count)
system.cpu0.statIssuedInstType_0::SimdSha256Hash2            0      0.00%     68.40% # Number of instructions issued per FU type, per thread (Count)
system.cpu0.statIssuedInstType_0::SimdShaSigma2            0      0.00%     68.40% # Number of instructions issued per FU type, per thread (Count)
system.cpu0.statIssuedInstType_0::SimdShaSigma3            0      0.00%     68.40% # Number of instructions issued per FU type, per thread (Count)
system.cpu0.statIssuedInstType_0::SimdPredAlu            0      0.00%     68.40% # Number of instructions issued per FU type, per thread (Count)
system.cpu0.statIssuedInstType_0::MemRead       935093     11.00%     79.40% # Number of instructions issued per FU type, per thread (Count)
system.cpu0.statIssuedInstType_0::MemWrite       905654     10.65%     90.05% # Number of instructions issued per FU type, per thread (Count)
system.cpu0.statIssuedInstType_0::FloatMemRead       431757      5.08%     95.13% # Number of instructions issued per FU type, per thread (Count)
system.cpu0.statIssuedInstType_0::FloatMemWrite       414015      4.87%    100.00% # Number of instructions issued per FU type, per thread (Count)
system.cpu0.statIssuedInstType_0::IprAccess            0      0.00%    100.00% # Number of instructions issued per FU type, per thread (Count)
system.cpu0.statIssuedInstType_0::InstPrefetch            0      0.00%    100.00% # Number of instructions issued per FU type, per thread (Count)
system.cpu0.statIssuedInstType_0::total       8501718                       # Number of instructions issued per FU type, per thread (Count)
system.cpu0.issueRate                        0.701585                       # Inst issue rate ((Count/Cycle))
system.cpu0.fuBusy                              91060                       # FU busy when requested (Count)
system.cpu0.fuBusyRate                       0.010711                       # FU busy rate (busy events/executed inst) ((Count/Count))
system.cpu0.intInstQueueReads                26220084                       # Number of integer instruction queue reads (Count)
system.cpu0.intInstQueueWrites                8974009                       # Number of integer instruction queue writes (Count)
system.cpu0.intInstQueueWakeupAccesses        7532170                       # Number of integer instruction queue wakeup accesses (Count)
system.cpu0.fpInstQueueReads                  1822281                       # Number of floating instruction queue reads (Count)
system.cpu0.fpInstQueueWrites                  981116                       # Number of floating instruction queue writes (Count)
system.cpu0.fpInstQueueWakeupAccesses          902357                       # Number of floating instruction queue wakeup accesses (Count)
system.cpu0.vecInstQueueReads                       0                       # Number of vector instruction queue reads (Count)
system.cpu0.vecInstQueueWrites                      0                       # Number of vector instruction queue writes (Count)
system.cpu0.vecInstQueueWakeupAccesses              0                       # Number of vector instruction queue wakeup accesses (Count)
system.cpu0.intAluAccesses                    7661030                       # Number of integer alu accesses (Count)
system.cpu0.fpAluAccesses                      913555                       # Number of floating point alu accesses (Count)
system.cpu0.vecAluAccesses                          0                       # Number of vector alu accesses (Count)
system.cpu0.numInsts                          8469108                       # Number of executed instructions (Count)
system.cpu0.numLoadInsts                      1359024                       # Number of load instructions executed (Count)
system.cpu0.numSquashedInsts                    32610                       # Number of squashed instructions skipped in execute (Count)
system.cpu0.numSwp                                  0                       # Number of swp insts executed (Count)
system.cpu0.numNop                                  0                       # Number of nop insts executed (Count)
system.cpu0.numRefs                           2675618                       # Number of memory reference insts executed (Count)
system.cpu0.numBranches                        444031                       # Number of branches executed (Count)
system.cpu0.numStoreInsts                     1316594                       # Number of stores executed (Count)
system.cpu0.numRate                          0.698894                       # Inst execution rate ((Count/Cycle))
system.cpu0.timesIdled                           2409                       # Number of times that the entire CPU went into an idle state and unscheduled itself (Count)
system.cpu0.idleCycles                        1172830                       # Total number of cycles that the CPU has spent unscheduled due to idling (Cycle)
system.cpu0.committedInsts                    5115590                       # Number of Instructions Simulated (Count)
system.cpu0.committedOps                      7801448                       # Number of Ops (including micro ops) Simulated (Count)
system.cpu0.cpi                              2.368814                       # CPI: Cycles Per Instruction ((Cycle/Count))
system.cpu0.totalCpi                         2.368814                       # CPI: Total CPI of All Threads ((Cycle/Count))
system.cpu0.ipc                              0.422152                       # IPC: Instructions Per Cycle ((Count/Cycle))
system.cpu0.totalIpc                         0.422152                       # IPC: Total IPC of All Threads ((Count/Cycle))
system.cpu0.intRegfileReads                  11761005                       # Number of integer regfile reads (Count)
system.cpu0.intRegfileWrites                  5885331                       # Number of integer regfile writes (Count)
system.cpu0.fpRegfileReads                     546072                       # Number of floating regfile reads (Count)
system.cpu0.fpRegfileWrites                    479243                       # Number of floating regfile writes (Count)
system.cpu0.ccRegfileReads                    3250333                       # number of cc regfile reads (Count)
system.cpu0.ccRegfileWrites                   3466237                       # number of cc regfile writes (Count)
system.cpu0.miscRegfileReads                  3805013                       # number of misc regfile reads (Count)
system.cpu0.miscRegfileWrites                     846                       # number of misc regfile writes (Count)
system.cpu0.MemDepUnit__0.insertedLoads       1391046                       # Number of loads inserted to the mem dependence unit. (Count)
system.cpu0.MemDepUnit__0.insertedStores      1331860                       # Number of stores inserted to the mem dependence unit. (Count)
system.cpu0.MemDepUnit__0.conflictingLoads       162305                       # Number of conflicting loads. (Count)
system.cpu0.MemDepUnit__0.conflictingStores        14920                       # Number of conflicting stores. (Count)
system.cpu0.MemDepUnit__1.insertedLoads             0                       # Number of loads inserted to the mem dependence unit. (Count)
system.cpu0.MemDepUnit__1.insertedStores            0                       # Number of stores inserted to the mem dependence unit. (Count)
system.cpu0.MemDepUnit__1.conflictingLoads            0                       # Number of conflicting loads. (Count)
system.cpu0.MemDepUnit__1.conflictingStores            0                       # Number of conflicting stores. (Count)
system.cpu0.MemDepUnit__2.insertedLoads             0                       # Number of loads inserted to the mem dependence unit. (Count)
system.cpu0.MemDepUnit__2.insertedStores            0                       # Number of stores inserted to the mem dependence unit. (Count)
system.cpu0.MemDepUnit__2.conflictingLoads            0                       # Number of conflicting loads. (Count)
system.cpu0.MemDepUnit__2.conflictingStores            0                       # Number of conflicting stores. (Count)
system.cpu0.MemDepUnit__3.insertedLoads             0                       # Number of loads inserted to the mem dependence unit. (Count)
system.cpu0.MemDepUnit__3.insertedStores            0                       # Number of stores inserted to the mem dependence unit. (Count)
system.cpu0.MemDepUnit__3.conflictingLoads            0                       # Number of conflicting loads. (Count)
system.cpu0.MemDepUnit__3.conflictingStores            0                       # Number of conflicting stores. (Count)
system.cpu0.branchPred.lookups                 560749                       # Number of BP lookups (Count)
system.cpu0.branchPred.condPredicted           497024                       # Number of conditional branches predicted (Count)
system.cpu0.branchPred.condIncorrect            18239                       # Number of conditional branches incorrect (Count)
system.cpu0.branchPred.BTBLookups              313490                       # Number of BTB lookups (Count)
system.cpu0.branchPred.BTBUpdates                8725                       # Number of BTB updates (Count)
system.cpu0.branchPred.BTBHits                 309294                       # Number of BTB hits (Count)
system.cpu0.branchPred.BTBHitRatio           0.986615                       # BTB Hit Ratio (Ratio)
system.cpu0.branchPred.RASUsed                  14502                       # Number of times the RAS was used to get a target. (Count)
system.cpu0.branchPred.RASIncorrect                 8                       # Number of incorrect RAS predictions. (Count)
system.cpu0.branchPred.indirectLookups           9922                       # Number of indirect predictor lookups. (Count)
system.cpu0.branchPred.indirectHits              5152                       # Number of indirect target hits. (Count)
system.cpu0.branchPred.indirectMisses            4770                       # Number of indirect misses. (Count)
system.cpu0.branchPred.indirectMispredicted         1237                       # Number of mispredicted indirect branches. (Count)
system.cpu0.commit.commitSquashedInsts        1067966                       # The number of squashed insts skipped by commit (Count)
system.cpu0.commit.commitNonSpecStalls            853                       # The number of times commit has been forced to stall to communicate backwards (Count)
system.cpu0.commit.branchMispredicts            19382                       # The number of times a branch was mispredicted (Count)
system.cpu0.commit.numCommittedDist::samples     10790566                       # Number of insts commited each cycle (Count)
system.cpu0.commit.numCommittedDist::mean     0.722988                       # Number of insts commited each cycle (Count)
system.cpu0.commit.numCommittedDist::stdev     1.774686                       # Number of insts commited each cycle (Count)
system.cpu0.commit.numCommittedDist::underflows            0      0.00%      0.00% # Number of insts commited each cycle (Count)
system.cpu0.commit.numCommittedDist::0        8231735     76.29%     76.29% # Number of insts commited each cycle (Count)
system.cpu0.commit.numCommittedDist::1         977249      9.06%     85.34% # Number of insts commited each cycle (Count)
system.cpu0.commit.numCommittedDist::2         557280      5.16%     90.51% # Number of insts commited each cycle (Count)
system.cpu0.commit.numCommittedDist::3         290744      2.69%     93.20% # Number of insts commited each cycle (Count)
system.cpu0.commit.numCommittedDist::4          98904      0.92%     94.12% # Number of insts commited each cycle (Count)
system.cpu0.commit.numCommittedDist::5         183002      1.70%     95.81% # Number of insts commited each cycle (Count)
system.cpu0.commit.numCommittedDist::6          17786      0.16%     95.98% # Number of insts commited each cycle (Count)
system.cpu0.commit.numCommittedDist::7          50863      0.47%     96.45% # Number of insts commited each cycle (Count)
system.cpu0.commit.numCommittedDist::8         383003      3.55%    100.00% # Number of insts commited each cycle (Count)
system.cpu0.commit.numCommittedDist::overflows            0      0.00%    100.00% # Number of insts commited each cycle (Count)
system.cpu0.commit.numCommittedDist::min_value            0                       # Number of insts commited each cycle (Count)
system.cpu0.commit.numCommittedDist::max_value            8                       # Number of insts commited each cycle (Count)
system.cpu0.commit.numCommittedDist::total     10790566                       # Number of insts commited each cycle (Count)
system.cpu0.commit.instsCommitted             5115590                       # Number of instructions committed (Count)
system.cpu0.commit.opsCommitted               7801448                       # Number of ops (including micro ops) committed (Count)
system.cpu0.commit.memRefs                    2533632                       # Number of memory references committed (Count)
system.cpu0.commit.loads                      1243021                       # Number of loads committed (Count)
system.cpu0.commit.amos                             0                       # Number of atomic instructions committed (Count)
system.cpu0.commit.membars                          2                       # Number of memory barriers committed (Count)
system.cpu0.commit.branches                    407958                       # Number of branches committed (Count)
system.cpu0.commit.vectorInstructions               0                       # Number of committed Vector instructions. (Count)
system.cpu0.commit.floating                    872934                       # Number of committed floating point instructions. (Count)
system.cpu0.commit.integer                    7741801                       # Number of committed integer instructions. (Count)
system.cpu0.commit.functionCalls                10695                       # Number of function calls committed. (Count)
system.cpu0.commit.committedInstType_0::No_OpClass        10855      0.14%      0.14% # Class of committed instruction (Count)
system.cpu0.commit.committedInstType_0::IntAlu      5175655     66.34%     66.48% # Class of committed instruction (Count)
system.cpu0.commit.committedInstType_0::IntMult           29      0.00%     66.48% # Class of committed instruction (Count)
system.cpu0.commit.committedInstType_0::IntDiv        35972      0.46%     66.94% # Class of committed instruction (Count)
system.cpu0.commit.committedInstType_0::FloatAdd         3214      0.04%     66.98% # Class of committed instruction (Count)
system.cpu0.commit.committedInstType_0::FloatCmp            0      0.00%     66.98% # Class of committed instruction (Count)
system.cpu0.commit.committedInstType_0::FloatCvt         1504      0.02%     67.00% # Class of committed instruction (Count)
system.cpu0.commit.committedInstType_0::FloatMult            0      0.00%     67.00% # Class of committed instruction (Count)
system.cpu0.commit.committedInstType_0::FloatMultAcc            0      0.00%     67.00% # Class of committed instruction (Count)
system.cpu0.commit.committedInstType_0::FloatDiv            0      0.00%     67.00% # Class of committed instruction (Count)
system.cpu0.commit.committedInstType_0::FloatMisc            0      0.00%     67.00% # Class of committed instruction (Count)
system.cpu0.commit.committedInstType_0::FloatSqrt            0      0.00%     67.00% # Class of committed instruction (Count)
system.cpu0.commit.committedInstType_0::SimdAdd         6746      0.09%     67.09% # Class of committed instruction (Count)
system.cpu0.commit.committedInstType_0::SimdAddAcc            0      0.00%     67.09% # Class of committed instruction (Count)
system.cpu0.commit.committedInstType_0::SimdAlu        12083      0.15%     67.24% # Class of committed instruction (Count)
system.cpu0.commit.committedInstType_0::SimdCmp            0      0.00%     67.24% # Class of committed instruction (Count)
system.cpu0.commit.committedInstType_0::SimdCvt        13188      0.17%     67.41% # Class of committed instruction (Count)
system.cpu0.commit.committedInstType_0::SimdMisc         7204      0.09%     67.51% # Class of committed instruction (Count)
system.cpu0.commit.committedInstType_0::SimdMult            0      0.00%     67.51% # Class of committed instruction (Count)
system.cpu0.commit.committedInstType_0::SimdMultAcc            0      0.00%     67.51% # Class of committed instruction (Count)
system.cpu0.commit.committedInstType_0::SimdShift         1366      0.02%     67.52% # Class of committed instruction (Count)
system.cpu0.commit.committedInstType_0::SimdShiftAcc            0      0.00%     67.52% # Class of committed instruction (Count)
system.cpu0.commit.committedInstType_0::SimdDiv            0      0.00%     67.52% # Class of committed instruction (Count)
system.cpu0.commit.committedInstType_0::SimdSqrt            0      0.00%     67.52% # Class of committed instruction (Count)
system.cpu0.commit.committedInstType_0::SimdFloatAdd            0      0.00%     67.52% # Class of committed instruction (Count)
system.cpu0.commit.committedInstType_0::SimdFloatAlu            0      0.00%     67.52% # Class of committed instruction (Count)
system.cpu0.commit.committedInstType_0::SimdFloatCmp            0      0.00%     67.52% # Class of committed instruction (Count)
system.cpu0.commit.committedInstType_0::SimdFloatCvt            0      0.00%     67.52% # Class of committed instruction (Count)
system.cpu0.commit.committedInstType_0::SimdFloatDiv            0      0.00%     67.52% # Class of committed instruction (Count)
system.cpu0.commit.committedInstType_0::SimdFloatMisc            0      0.00%     67.52% # Class of committed instruction (Count)
system.cpu0.commit.committedInstType_0::SimdFloatMult            0      0.00%     67.52% # Class of committed instruction (Count)
system.cpu0.commit.committedInstType_0::SimdFloatMultAcc            0      0.00%     67.52% # Class of committed instruction (Count)
system.cpu0.commit.committedInstType_0::SimdFloatSqrt            0      0.00%     67.52% # Class of committed instruction (Count)
system.cpu0.commit.committedInstType_0::SimdReduceAdd            0      0.00%     67.52% # Class of committed instruction (Count)
system.cpu0.commit.committedInstType_0::SimdReduceAlu            0      0.00%     67.52% # Class of committed instruction (Count)
system.cpu0.commit.committedInstType_0::SimdReduceCmp            0      0.00%     67.52% # Class of committed instruction (Count)
system.cpu0.commit.committedInstType_0::SimdFloatReduceAdd            0      0.00%     67.52% # Class of committed instruction (Count)
system.cpu0.commit.committedInstType_0::SimdFloatReduceCmp            0      0.00%     67.52% # Class of committed instruction (Count)
system.cpu0.commit.committedInstType_0::SimdAes            0      0.00%     67.52% # Class of committed instruction (Count)
system.cpu0.commit.committedInstType_0::SimdAesMix            0      0.00%     67.52% # Class of committed instruction (Count)
system.cpu0.commit.committedInstType_0::SimdSha1Hash            0      0.00%     67.52% # Class of committed instruction (Count)
system.cpu0.commit.committedInstType_0::SimdSha1Hash2            0      0.00%     67.52% # Class of committed instruction (Count)
system.cpu0.commit.committedInstType_0::SimdSha256Hash            0      0.00%     67.52% # Class of committed instruction (Count)
system.cpu0.commit.committedInstType_0::SimdSha256Hash2            0      0.00%     67.52% # Class of committed instruction (Count)
system.cpu0.commit.committedInstType_0::SimdShaSigma2            0      0.00%     67.52% # Class of committed instruction (Count)
system.cpu0.commit.committedInstType_0::SimdShaSigma3            0      0.00%     67.52% # Class of committed instruction (Count)
system.cpu0.commit.committedInstType_0::SimdPredAlu            0      0.00%     67.52% # Class of committed instruction (Count)
system.cpu0.commit.committedInstType_0::MemRead       826046     10.59%     78.11% # Class of committed instruction (Count)
system.cpu0.commit.committedInstType_0::MemWrite       880869     11.29%     89.40% # Class of committed instruction (Count)
system.cpu0.commit.committedInstType_0::FloatMemRead       416975      5.34%     94.75% # Class of committed instruction (Count)
system.cpu0.commit.committedInstType_0::FloatMemWrite       409742      5.25%    100.00% # Class of committed instruction (Count)
system.cpu0.commit.committedInstType_0::IprAccess            0      0.00%    100.00% # Class of committed instruction (Count)
system.cpu0.commit.committedInstType_0::InstPrefetch            0      0.00%    100.00% # Class of committed instruction (Count)
system.cpu0.commit.committedInstType_0::total      7801448                       # Class of committed instruction (Count)
system.cpu0.commit.commitEligibleSamples       383003                       # number cycles where commit BW limit reached (Cycle)
system.cpu0.decode.idleCycles                  579947                       # Number of cycles decode is idle (Cycle)
system.cpu0.decode.blockedCycles              9099587                       # Number of cycles decode is blocked (Cycle)
system.cpu0.decode.runCycles                   819536                       # Number of cycles decode is running (Cycle)
system.cpu0.decode.unblockCycles               425796                       # Number of cycles decode is unblocking (Cycle)
system.cpu0.decode.squashCycles                 20183                       # Number of cycles decode is squashing (Cycle)
system.cpu0.decode.branchResolved              295378                       # Number of times decode resolved a branch (Count)
system.cpu0.decode.branchMispred                 1256                       # Number of times decode detected a branch misprediction (Count)
system.cpu0.decode.decodedInsts               9076919                       # Number of instructions handled by decode (Count)
system.cpu0.decode.squashedInsts                 5946                       # Number of squashed instructions handled by decode (Count)
system.cpu0.fetch.icacheStallCycles            802536                       # Number of cycles fetch is stalled on an Icache miss (Cycle)
system.cpu0.fetch.insts                       5992717                       # Number of instructions fetch has processed (Count)
system.cpu0.fetch.branches                     560749                       # Number of branches that fetch encountered (Count)
system.cpu0.fetch.predictedBranches            328948                       # Number of branches that fetch has predicted taken (Count)
system.cpu0.fetch.cycles                      9889798                       # Number of cycles fetch has run and was not squashing or blocked (Cycle)
system.cpu0.fetch.squashCycles                  42826                       # Number of cycles fetch has spent squashing (Cycle)
system.cpu0.fetch.miscStallCycles               11778                       # Number of cycles fetch has spent waiting on interrupts, or bad addresses, or out of MSHRs (Cycle)
system.cpu0.fetch.pendingTrapStallCycles        15370                       # Number of stall cycles due to pending traps (Cycle)
system.cpu0.fetch.icacheWaitRetryStallCycles       204154                       # Number of stall cycles due to full MSHR (Cycle)
system.cpu0.fetch.cacheLines                   605619                       # Number of cache lines fetched (Count)
system.cpu0.fetch.icacheSquashes                 4827                       # Number of outstanding Icache misses that were squashed (Count)
system.cpu0.fetch.nisnDist::samples          10945049                       # Number of instructions fetched each cycle (Total) (Count)
system.cpu0.fetch.nisnDist::mean             0.858252                       # Number of instructions fetched each cycle (Total) (Count)
system.cpu0.fetch.nisnDist::stdev            2.283141                       # Number of instructions fetched each cycle (Total) (Count)
system.cpu0.fetch.nisnDist::underflows              0      0.00%      0.00% # Number of instructions fetched each cycle (Total) (Count)
system.cpu0.fetch.nisnDist::0                 9371432     85.62%     85.62% # Number of instructions fetched each cycle (Total) (Count)
system.cpu0.fetch.nisnDist::1                   75903      0.69%     86.32% # Number of instructions fetched each cycle (Total) (Count)
system.cpu0.fetch.nisnDist::2                  107703      0.98%     87.30% # Number of instructions fetched each cycle (Total) (Count)
system.cpu0.fetch.nisnDist::3                  134976      1.23%     88.53% # Number of instructions fetched each cycle (Total) (Count)
system.cpu0.fetch.nisnDist::4                  205261      1.88%     90.41% # Number of instructions fetched each cycle (Total) (Count)
system.cpu0.fetch.nisnDist::5                  102603      0.94%     91.35% # Number of instructions fetched each cycle (Total) (Count)
system.cpu0.fetch.nisnDist::6                   68401      0.62%     91.97% # Number of instructions fetched each cycle (Total) (Count)
system.cpu0.fetch.nisnDist::7                   77253      0.71%     92.68% # Number of instructions fetched each cycle (Total) (Count)
system.cpu0.fetch.nisnDist::8                  801517      7.32%    100.00% # Number of instructions fetched each cycle (Total) (Count)
system.cpu0.fetch.nisnDist::overflows               0      0.00%    100.00% # Number of instructions fetched each cycle (Total) (Count)
system.cpu0.fetch.nisnDist::min_value               0                       # Number of instructions fetched each cycle (Total) (Count)
system.cpu0.fetch.nisnDist::max_value               8                       # Number of instructions fetched each cycle (Total) (Count)
system.cpu0.fetch.nisnDist::total            10945049                       # Number of instructions fetched each cycle (Total) (Count)
system.cpu0.fetch.branchRate                 0.046275                       # Number of branch fetches per cycle (Ratio)
system.cpu0.fetch.rate                       0.494535                       # Number of inst fetches per cycle ((Count/Cycle))
system.cpu0.iew.idleCycles                          0                       # Number of cycles IEW is idle (Cycle)
system.cpu0.iew.squashCycles                    20183                       # Number of cycles IEW is squashing (Cycle)
system.cpu0.iew.blockCycles                   4969135                       # Number of cycles IEW is blocking (Cycle)
system.cpu0.iew.unblockCycles                  153944                       # Number of cycles IEW is unblocking (Cycle)
system.cpu0.iew.dispatchedInsts               8878172                       # Number of instructions dispatched to IQ (Count)
system.cpu0.iew.dispSquashedInsts                1102                       # Number of squashed instructions skipped by dispatch (Count)
system.cpu0.iew.dispLoadInsts                 1391046                       # Number of dispatched load instructions (Count)
system.cpu0.iew.dispStoreInsts                1331860                       # Number of dispatched store instructions (Count)
system.cpu0.iew.dispNonSpecInsts                  899                       # Number of dispatched non-speculative instructions (Count)
system.cpu0.iew.iqFullEvents                     7373                       # Number of times the IQ has become full, causing a stall (Count)
system.cpu0.iew.lsqFullEvents                  141358                       # Number of times the LSQ has become full, causing a stall (Count)
system.cpu0.iew.memOrderViolationEvents           236                       # Number of memory order violations (Count)
system.cpu0.iew.predictedTakenIncorrect          8902                       # Number of branches that were predicted taken incorrectly (Count)
system.cpu0.iew.predictedNotTakenIncorrect        12668                       # Number of branches that were predicted not taken incorrectly (Count)
system.cpu0.iew.branchMispredicts               21570                       # Number of branch mispredicts detected at execute (Count)
system.cpu0.iew.instsToCommit                 8446350                       # Cumulative count of insts sent to commit (Count)
system.cpu0.iew.writebackCount                8434527                       # Cumulative count of insts written-back (Count)
system.cpu0.iew.producerInst                  5488065                       # Number of instructions producing a value (Count)
system.cpu0.iew.consumerInst                 10315954                       # Number of instructions consuming a value (Count)
system.cpu0.iew.wbRate                       0.696040                       # Insts written-back per cycle ((Count/Cycle))
system.cpu0.iew.wbFanout                     0.531998                       # Average fanout of values written-back ((Count/Count))
system.cpu0.interrupts.clk_domain.clock          8000                       # Clock period in ticks (Tick)
system.cpu0.lsq0.forwLoads                     223150                       # Number of loads that had data forwarded from stores (Count)
system.cpu0.lsq0.squashedLoads                 148025                       # Number of loads squashed (Count)
system.cpu0.lsq0.ignoredResponses                  94                       # Number of memory responses ignored because the instruction is squashed (Count)
system.cpu0.lsq0.memOrderViolation                236                       # Number of memory ordering violations (Count)
system.cpu0.lsq0.squashedStores                 41249                       # Number of stores squashed (Count)
system.cpu0.lsq0.rescheduledLoads                2063                       # Number of loads that were rescheduled (Count)
system.cpu0.lsq0.blockedByCache                  2110                       # Number of times an access to memory failed due to the cache being blocked (Count)
system.cpu0.lsq0.loadToUse::samples           1242943                       # Distribution of cycle latency between the first time a load is issued and its completion (Unspecified)
system.cpu0.lsq0.loadToUse::mean            27.599418                       # Distribution of cycle latency between the first time a load is issued and its completion (Unspecified)
system.cpu0.lsq0.loadToUse::stdev          138.589596                       # Distribution of cycle latency between the first time a load is issued and its completion (Unspecified)
system.cpu0.lsq0.loadToUse::0-9               1195292     96.17%     96.17% # Distribution of cycle latency between the first time a load is issued and its completion (Unspecified)
system.cpu0.lsq0.loadToUse::10-19                  91      0.01%     96.17% # Distribution of cycle latency between the first time a load is issued and its completion (Unspecified)
system.cpu0.lsq0.loadToUse::20-29                2037      0.16%     96.34% # Distribution of cycle latency between the first time a load is issued and its completion (Unspecified)
system.cpu0.lsq0.loadToUse::30-39                 137      0.01%     96.35% # Distribution of cycle latency between the first time a load is issued and its completion (Unspecified)
system.cpu0.lsq0.loadToUse::40-49                  99      0.01%     96.36% # Distribution of cycle latency between the first time a load is issued and its completion (Unspecified)
system.cpu0.lsq0.loadToUse::50-59                 165      0.01%     96.37% # Distribution of cycle latency between the first time a load is issued and its completion (Unspecified)
system.cpu0.lsq0.loadToUse::60-69                 129      0.01%     96.38% # Distribution of cycle latency between the first time a load is issued and its completion (Unspecified)
system.cpu0.lsq0.loadToUse::70-79                  83      0.01%     96.39% # Distribution of cycle latency between the first time a load is issued and its completion (Unspecified)
system.cpu0.lsq0.loadToUse::80-89                  92      0.01%     96.39% # Distribution of cycle latency between the first time a load is issued and its completion (Unspecified)
system.cpu0.lsq0.loadToUse::90-99                  83      0.01%     96.40% # Distribution of cycle latency between the first time a load is issued and its completion (Unspecified)
system.cpu0.lsq0.loadToUse::100-109                54      0.00%     96.41% # Distribution of cycle latency between the first time a load is issued and its completion (Unspecified)
system.cpu0.lsq0.loadToUse::110-119                70      0.01%     96.41% # Distribution of cycle latency between the first time a load is issued and its completion (Unspecified)
system.cpu0.lsq0.loadToUse::120-129                56      0.00%     96.42% # Distribution of cycle latency between the first time a load is issued and its completion (Unspecified)
system.cpu0.lsq0.loadToUse::130-139                24      0.00%     96.42% # Distribution of cycle latency between the first time a load is issued and its completion (Unspecified)
system.cpu0.lsq0.loadToUse::140-149                49      0.00%     96.42% # Distribution of cycle latency between the first time a load is issued and its completion (Unspecified)
system.cpu0.lsq0.loadToUse::150-159                56      0.00%     96.43% # Distribution of cycle latency between the first time a load is issued and its completion (Unspecified)
system.cpu0.lsq0.loadToUse::160-169                58      0.00%     96.43% # Distribution of cycle latency between the first time a load is issued and its completion (Unspecified)
system.cpu0.lsq0.loadToUse::170-179               149      0.01%     96.44% # Distribution of cycle latency between the first time a load is issued and its completion (Unspecified)
system.cpu0.lsq0.loadToUse::180-189               596      0.05%     96.49% # Distribution of cycle latency between the first time a load is issued and its completion (Unspecified)
system.cpu0.lsq0.loadToUse::190-199                33      0.00%     96.49% # Distribution of cycle latency between the first time a load is issued and its completion (Unspecified)
system.cpu0.lsq0.loadToUse::200-209                36      0.00%     96.50% # Distribution of cycle latency between the first time a load is issued and its completion (Unspecified)
system.cpu0.lsq0.loadToUse::210-219                68      0.01%     96.50% # Distribution of cycle latency between the first time a load is issued and its completion (Unspecified)
system.cpu0.lsq0.loadToUse::220-229               125      0.01%     96.51% # Distribution of cycle latency between the first time a load is issued and its completion (Unspecified)
system.cpu0.lsq0.loadToUse::230-239               176      0.01%     96.53% # Distribution of cycle latency between the first time a load is issued and its completion (Unspecified)
system.cpu0.lsq0.loadToUse::240-249              1094      0.09%     96.61% # Distribution of cycle latency between the first time a load is issued and its completion (Unspecified)
system.cpu0.lsq0.loadToUse::250-259                55      0.00%     96.62% # Distribution of cycle latency between the first time a load is issued and its completion (Unspecified)
system.cpu0.lsq0.loadToUse::260-269                67      0.01%     96.62% # Distribution of cycle latency between the first time a load is issued and its completion (Unspecified)
system.cpu0.lsq0.loadToUse::270-279                93      0.01%     96.63% # Distribution of cycle latency between the first time a load is issued and its completion (Unspecified)
system.cpu0.lsq0.loadToUse::280-289               157      0.01%     96.64% # Distribution of cycle latency between the first time a load is issued and its completion (Unspecified)
system.cpu0.lsq0.loadToUse::290-299               262      0.02%     96.66% # Distribution of cycle latency between the first time a load is issued and its completion (Unspecified)
system.cpu0.lsq0.loadToUse::overflows           41457      3.34%    100.00% # Distribution of cycle latency between the first time a load is issued and its completion (Unspecified)
system.cpu0.lsq0.loadToUse::min_value               2                       # Distribution of cycle latency between the first time a load is issued and its completion (Unspecified)
system.cpu0.lsq0.loadToUse::max_value            2386                       # Distribution of cycle latency between the first time a load is issued and its completion (Unspecified)
system.cpu0.lsq0.loadToUse::total             1242943                       # Distribution of cycle latency between the first time a load is issued and its completion (Unspecified)
system.cpu0.mmu.dtb.rdAccesses                1353344                       # TLB accesses on read requests (Count)
system.cpu0.mmu.dtb.wrAccesses                1316796                       # TLB accesses on write requests (Count)
system.cpu0.mmu.dtb.rdMisses                     3153                       # TLB misses on read requests (Count)
system.cpu0.mmu.dtb.wrMisses                      415                       # TLB misses on write requests (Count)
system.cpu0.mmu.dtb.walker.power_state.pwrStateResidencyTicks::UNDEFINED   6105761500                       # Cumulative time (in ticks) in various power states (Tick)
system.cpu0.mmu.itb.rdAccesses                      0                       # TLB accesses on read requests (Count)
system.cpu0.mmu.itb.wrAccesses                 608078                       # TLB accesses on write requests (Count)
system.cpu0.mmu.itb.rdMisses                        0                       # TLB misses on read requests (Count)
system.cpu0.mmu.itb.wrMisses                     3010                       # TLB misses on write requests (Count)
system.cpu0.mmu.itb.walker.power_state.pwrStateResidencyTicks::UNDEFINED   6105761500                       # Cumulative time (in ticks) in various power states (Tick)
system.cpu0.power_state.pwrStateResidencyTicks::ON   6105761500                       # Cumulative time (in ticks) in various power states (Tick)
system.cpu0.rename.squashCycles                 20183                       # Number of cycles rename is squashing (Cycle)
system.cpu0.rename.idleCycles                  753856                       # Number of cycles rename is idle (Cycle)
system.cpu0.rename.blockCycles                6565509                       # Number of cycles rename is blocking (Cycle)
system.cpu0.rename.serializeStallCycles         22095                       # count of cycles rename stalled for serializing inst (Cycle)
system.cpu0.rename.runCycles                  1062113                       # Number of cycles rename is running (Cycle)
system.cpu0.rename.unblockCycles              2521293                       # Number of cycles rename is unblocking (Cycle)
system.cpu0.rename.renamedInsts               8987009                       # Number of instructions processed by rename (Count)
system.cpu0.rename.ROBFullEvents               102589                       # Number of times rename has blocked due to ROB full (Count)
system.cpu0.rename.IQFullEvents                245935                       # Number of times rename has blocked due to IQ full (Count)
system.cpu0.rename.LQFullEvents                145329                       # Number of times rename has blocked due to LQ full (Count)
system.cpu0.rename.SQFullEvents               2076149                       # Number of times rename has blocked due to SQ full (Count)
system.cpu0.rename.fullRegistersEvents           3037                       # Number of times there has been no free registers (Count)
system.cpu0.rename.renamedOperands           17173298                       # Number of destination operands rename has renamed (Count)
system.cpu0.rename.lookups                   32759483                       # Number of register rename lookups that rename has made (Count)
system.cpu0.rename.intLookups                12719127                       # Number of integer rename lookups (Count)
system.cpu0.rename.fpLookups                   587480                       # Number of floating rename lookups (Count)
system.cpu0.rename.committedMaps             14759303                       # Number of HB maps that are committed (Count)
system.cpu0.rename.undoneMaps                 2413995                       # Number of HB maps that are undone due to squashing (Count)
system.cpu0.rename.serializing                    874                       # count of serializing insts renamed (Count)
system.cpu0.rename.tempSerializing                859                       # count of temporary serializing insts renamed (Count)
system.cpu0.rename.skidInsts                  2591935                       # count of insts added to the skid buffer (Count)
system.cpu0.rob.reads                        19269255                       # The number of ROB reads (Count)
system.cpu0.rob.writes                       17893560                       # The number of ROB writes (Count)
system.cpu0.thread_0.numInsts                 5115590                       # Number of Instructions committed (Count)
system.cpu0.thread_0.numOps                   7801448                       # Number of Ops committed (Count)
system.cpu0.thread_0.numMemRefs                     0                       # Number of Memory References (Count)
system.cpu0.workload.numSyscalls                   63                       # Number of system calls (Count)
system.cpu1.numCycles                        11614449                       # Number of cpu cycles simulated (Cycle)
system.cpu1.numWorkItemsStarted                     0                       # Number of work items this cpu started (Count)
system.cpu1.numWorkItemsCompleted                   0                       # Number of work items this cpu completed (Count)
system.cpu1.instsAdded                        8876992                       # Number of instructions added to the IQ (excludes non-spec) (Count)
system.cpu1.nonSpecInstsAdded                    1082                       # Number of non-speculative instructions added to the IQ (Count)
system.cpu1.instsIssued                       8500990                       # Number of instructions issued (Count)
system.cpu1.squashedInstsIssued                  3002                       # Number of squashed instructions issued (Count)
system.cpu1.squashedInstsExamined             1076626                       # Number of squashed instructions iterated over during squash; mainly for profiling (Count)
system.cpu1.squashedOperandsExamined          2334672                       # Number of squashed operands that are examined and possibly removed from graph (Count)
system.cpu1.squashedNonSpecRemoved                229                       # Number of squashed non-spec instructions that were removed (Count)
system.cpu1.numIssuedDist::samples           10539967                       # Number of insts issued each cycle (Count)
system.cpu1.numIssuedDist::mean              0.806548                       # Number of insts issued each cycle (Count)
system.cpu1.numIssuedDist::stdev             1.629797                       # Number of insts issued each cycle (Count)
system.cpu1.numIssuedDist::underflows               0      0.00%      0.00% # Number of insts issued each cycle (Count)
system.cpu1.numIssuedDist::0                  7615034     72.25%     72.25% # Number of insts issued each cycle (Count)
system.cpu1.numIssuedDist::1                   858351      8.14%     80.39% # Number of insts issued each cycle (Count)
system.cpu1.numIssuedDist::2                   664851      6.31%     86.70% # Number of insts issued each cycle (Count)
system.cpu1.numIssuedDist::3                   428237      4.06%     90.76% # Number of insts issued each cycle (Count)
system.cpu1.numIssuedDist::4                   398466      3.78%     94.54% # Number of insts issued each cycle (Count)
system.cpu1.numIssuedDist::5                   234549      2.23%     96.77% # Number of insts issued each cycle (Count)
system.cpu1.numIssuedDist::6                   192302      1.82%     98.59% # Number of insts issued each cycle (Count)
system.cpu1.numIssuedDist::7                    77611      0.74%     99.33% # Number of insts issued each cycle (Count)
system.cpu1.numIssuedDist::8                    70566      0.67%    100.00% # Number of insts issued each cycle (Count)
system.cpu1.numIssuedDist::overflows                0      0.00%    100.00% # Number of insts issued each cycle (Count)
system.cpu1.numIssuedDist::min_value                0                       # Number of insts issued each cycle (Count)
system.cpu1.numIssuedDist::max_value                8                       # Number of insts issued each cycle (Count)
system.cpu1.numIssuedDist::total             10539967                       # Number of insts issued each cycle (Count)
system.cpu1.statFuBusy::No_OpClass                  0      0.00%      0.00% # attempts to use FU when none available (Count)
system.cpu1.statFuBusy::IntAlu                  44265     48.50%     48.50% # attempts to use FU when none available (Count)
system.cpu1.statFuBusy::IntMult                     0      0.00%     48.50% # attempts to use FU when none available (Count)
system.cpu1.statFuBusy::IntDiv                      0      0.00%     48.50% # attempts to use FU when none available (Count)
system.cpu1.statFuBusy::FloatAdd                    0      0.00%     48.50% # attempts to use FU when none available (Count)
system.cpu1.statFuBusy::FloatCmp                    0      0.00%     48.50% # attempts to use FU when none available (Count)
system.cpu1.statFuBusy::FloatCvt                    0      0.00%     48.50% # attempts to use FU when none available (Count)
system.cpu1.statFuBusy::FloatMult                   0      0.00%     48.50% # attempts to use FU when none available (Count)
system.cpu1.statFuBusy::FloatMultAcc                0      0.00%     48.50% # attempts to use FU when none available (Count)
system.cpu1.statFuBusy::FloatDiv                    0      0.00%     48.50% # attempts to use FU when none available (Count)
system.cpu1.statFuBusy::FloatMisc                   0      0.00%     48.50% # attempts to use FU when none available (Count)
system.cpu1.statFuBusy::FloatSqrt                   0      0.00%     48.50% # attempts to use FU when none available (Count)
system.cpu1.statFuBusy::SimdAdd                     0      0.00%     48.50% # attempts to use FU when none available (Count)
system.cpu1.statFuBusy::SimdAddAcc                  0      0.00%     48.50% # attempts to use FU when none available (Count)
system.cpu1.statFuBusy::SimdAlu                   122      0.13%     48.63% # attempts to use FU when none available (Count)
system.cpu1.statFuBusy::SimdCmp                     0      0.00%     48.63% # attempts to use FU when none available (Count)
system.cpu1.statFuBusy::SimdCvt                   139      0.15%     48.79% # attempts to use FU when none available (Count)
system.cpu1.statFuBusy::SimdMisc                    0      0.00%     48.79% # attempts to use FU when none available (Count)
system.cpu1.statFuBusy::SimdMult                    0      0.00%     48.79% # attempts to use FU when none available (Count)
system.cpu1.statFuBusy::SimdMultAcc                 0      0.00%     48.79% # attempts to use FU when none available (Count)
system.cpu1.statFuBusy::SimdShift                 147      0.16%     48.95% # attempts to use FU when none available (Count)
system.cpu1.statFuBusy::SimdShiftAcc                0      0.00%     48.95% # attempts to use FU when none available (Count)
system.cpu1.statFuBusy::SimdDiv                     0      0.00%     48.95% # attempts to use FU when none available (Count)
system.cpu1.statFuBusy::SimdSqrt                    0      0.00%     48.95% # attempts to use FU when none available (Count)
system.cpu1.statFuBusy::SimdFloatAdd                0      0.00%     48.95% # attempts to use FU when none available (Count)
system.cpu1.statFuBusy::SimdFloatAlu                0      0.00%     48.95% # attempts to use FU when none available (Count)
system.cpu1.statFuBusy::SimdFloatCmp                0      0.00%     48.95% # attempts to use FU when none available (Count)
system.cpu1.statFuBusy::SimdFloatCvt                0      0.00%     48.95% # attempts to use FU when none available (Count)
system.cpu1.statFuBusy::SimdFloatDiv                0      0.00%     48.95% # attempts to use FU when none available (Count)
system.cpu1.statFuBusy::SimdFloatMisc               0      0.00%     48.95% # attempts to use FU when none available (Count)
system.cpu1.statFuBusy::SimdFloatMult               0      0.00%     48.95% # attempts to use FU when none available (Count)
system.cpu1.statFuBusy::SimdFloatMultAcc            0      0.00%     48.95% # attempts to use FU when none available (Count)
system.cpu1.statFuBusy::SimdFloatSqrt               0      0.00%     48.95% # attempts to use FU when none available (Count)
system.cpu1.statFuBusy::SimdReduceAdd               0      0.00%     48.95% # attempts to use FU when none available (Count)
system.cpu1.statFuBusy::SimdReduceAlu               0      0.00%     48.95% # attempts to use FU when none available (Count)
system.cpu1.statFuBusy::SimdReduceCmp               0      0.00%     48.95% # attempts to use FU when none available (Count)
system.cpu1.statFuBusy::SimdFloatReduceAdd            0      0.00%     48.95% # attempts to use FU when none available (Count)
system.cpu1.statFuBusy::SimdFloatReduceCmp            0      0.00%     48.95% # attempts to use FU when none available (Count)
system.cpu1.statFuBusy::SimdAes                     0      0.00%     48.95% # attempts to use FU when none available (Count)
system.cpu1.statFuBusy::SimdAesMix                  0      0.00%     48.95% # attempts to use FU when none available (Count)
system.cpu1.statFuBusy::SimdSha1Hash                0      0.00%     48.95% # attempts to use FU when none available (Count)
system.cpu1.statFuBusy::SimdSha1Hash2               0      0.00%     48.95% # attempts to use FU when none available (Count)
system.cpu1.statFuBusy::SimdSha256Hash              0      0.00%     48.95% # attempts to use FU when none available (Count)
system.cpu1.statFuBusy::SimdSha256Hash2             0      0.00%     48.95% # attempts to use FU when none available (Count)
system.cpu1.statFuBusy::SimdShaSigma2               0      0.00%     48.95% # attempts to use FU when none available (Count)
system.cpu1.statFuBusy::SimdShaSigma3               0      0.00%     48.95% # attempts to use FU when none available (Count)
system.cpu1.statFuBusy::SimdPredAlu                 0      0.00%     48.95% # attempts to use FU when none available (Count)
system.cpu1.statFuBusy::MemRead                 12218     13.39%     62.33% # attempts to use FU when none available (Count)
system.cpu1.statFuBusy::MemWrite                29641     32.48%     94.81% # attempts to use FU when none available (Count)
system.cpu1.statFuBusy::FloatMemRead             2612      2.86%     97.67% # attempts to use FU when none available (Count)
system.cpu1.statFuBusy::FloatMemWrite            2123      2.33%    100.00% # attempts to use FU when none available (Count)
system.cpu1.statFuBusy::IprAccess                   0      0.00%    100.00% # attempts to use FU when none available (Count)
system.cpu1.statFuBusy::InstPrefetch                0      0.00%    100.00% # attempts to use FU when none available (Count)
system.cpu1.statIssuedInstType_0::No_OpClass        18020      0.21%      0.21% # Number of instructions issued per FU type, per thread (Count)
system.cpu1.statIssuedInstType_0::IntAlu      5696894     67.01%     67.23% # Number of instructions issued per FU type, per thread (Count)
system.cpu1.statIssuedInstType_0::IntMult           38      0.00%     67.23% # Number of instructions issued per FU type, per thread (Count)
system.cpu1.statIssuedInstType_0::IntDiv        38320      0.45%     67.68% # Number of instructions issued per FU type, per thread (Count)
system.cpu1.statIssuedInstType_0::FloatAdd         4370      0.05%     67.73% # Number of instructions issued per FU type, per thread (Count)
system.cpu1.statIssuedInstType_0::FloatCmp            0      0.00%     67.73% # Number of instructions issued per FU type, per thread (Count)
system.cpu1.statIssuedInstType_0::FloatCvt         1648      0.02%     67.75% # Number of instructions issued per FU type, per thread (Count)
system.cpu1.statIssuedInstType_0::FloatMult            0      0.00%     67.75% # Number of instructions issued per FU type, per thread (Count)
system.cpu1.statIssuedInstType_0::FloatMultAcc            0      0.00%     67.75% # Number of instructions issued per FU type, per thread (Count)
system.cpu1.statIssuedInstType_0::FloatDiv            0      0.00%     67.75% # Number of instructions issued per FU type, per thread (Count)
system.cpu1.statIssuedInstType_0::FloatMisc            0      0.00%     67.75% # Number of instructions issued per FU type, per thread (Count)
system.cpu1.statIssuedInstType_0::FloatSqrt            0      0.00%     67.75% # Number of instructions issued per FU type, per thread (Count)
system.cpu1.statIssuedInstType_0::SimdAdd         8336      0.10%     67.85% # Number of instructions issued per FU type, per thread (Count)
system.cpu1.statIssuedInstType_0::SimdAddAcc            0      0.00%     67.85% # Number of instructions issued per FU type, per thread (Count)
system.cpu1.statIssuedInstType_0::SimdAlu        16978      0.20%     68.05% # Number of instructions issued per FU type, per thread (Count)
system.cpu1.statIssuedInstType_0::SimdCmp            0      0.00%     68.05% # Number of instructions issued per FU type, per thread (Count)
system.cpu1.statIssuedInstType_0::SimdCvt        18599      0.22%     68.27% # Number of instructions issued per FU type, per thread (Count)
system.cpu1.statIssuedInstType_0::SimdMisc         8794      0.10%     68.37% # Number of instructions issued per FU type, per thread (Count)
system.cpu1.statIssuedInstType_0::SimdMult            0      0.00%     68.37% # Number of instructions issued per FU type, per thread (Count)
system.cpu1.statIssuedInstType_0::SimdMultAcc            0      0.00%     68.37% # Number of instructions issued per FU type, per thread (Count)
system.cpu1.statIssuedInstType_0::SimdShift         2588      0.03%     68.40% # Number of instructions issued per FU type, per thread (Count)
system.cpu1.statIssuedInstType_0::SimdShiftAcc            0      0.00%     68.40% # Number of instructions issued per FU type, per thread (Count)
system.cpu1.statIssuedInstType_0::SimdDiv            0      0.00%     68.40% # Number of instructions issued per FU type, per thread (Count)
system.cpu1.statIssuedInstType_0::SimdSqrt            0      0.00%     68.40% # Number of instructions issued per FU type, per thread (Count)
system.cpu1.statIssuedInstType_0::SimdFloatAdd            0      0.00%     68.40% # Number of instructions issued per FU type, per thread (Count)
system.cpu1.statIssuedInstType_0::SimdFloatAlu            0      0.00%     68.40% # Number of instructions issued per FU type, per thread (Count)
system.cpu1.statIssuedInstType_0::SimdFloatCmp            0      0.00%     68.40% # Number of instructions issued per FU type, per thread (Count)
system.cpu1.statIssuedInstType_0::SimdFloatCvt            0      0.00%     68.40% # Number of instructions issued per FU type, per thread (Count)
system.cpu1.statIssuedInstType_0::SimdFloatDiv            0      0.00%     68.40% # Number of instructions issued per FU type, per thread (Count)
system.cpu1.statIssuedInstType_0::SimdFloatMisc            0      0.00%     68.40% # Number of instructions issued per FU type, per thread (Count)
system.cpu1.statIssuedInstType_0::SimdFloatMult            0      0.00%     68.40% # Number of instructions issued per FU type, per thread (Count)
system.cpu1.statIssuedInstType_0::SimdFloatMultAcc            0      0.00%     68.40% # Number of instructions issued per FU type, per thread (Count)
system.cpu1.statIssuedInstType_0::SimdFloatSqrt            0      0.00%     68.40% # Number of instructions issued per FU type, per thread (Count)
system.cpu1.statIssuedInstType_0::SimdReduceAdd            0      0.00%     68.40% # Number of instructions issued per FU type, per thread (Count)
system.cpu1.statIssuedInstType_0::SimdReduceAlu            0      0.00%     68.40% # Number of instructions issued per FU type, per thread (Count)
system.cpu1.statIssuedInstType_0::SimdReduceCmp            0      0.00%     68.40% # Number of instructions issued per FU type, per thread (Count)
system.cpu1.statIssuedInstType_0::SimdFloatReduceAdd            0      0.00%     68.40% # Number of instructions issued per FU type, per thread (Count)
system.cpu1.statIssuedInstType_0::SimdFloatReduceCmp            0      0.00%     68.40% # Number of instructions issued per FU type, per thread (Count)
system.cpu1.statIssuedInstType_0::SimdAes            0      0.00%     68.40% # Number of instructions issued per FU type, per thread (Count)
system.cpu1.statIssuedInstType_0::SimdAesMix            0      0.00%     68.40% # Number of instructions issued per FU type, per thread (Count)
system.cpu1.statIssuedInstType_0::SimdSha1Hash            0      0.00%     68.40% # Number of instructions issued per FU type, per thread (Count)
system.cpu1.statIssuedInstType_0::SimdSha1Hash2            0      0.00%     68.40% # Number of instructions issued per FU type, per thread (Count)
system.cpu1.statIssuedInstType_0::SimdSha256Hash            0      0.00%     68.40% # Number of instructions issued per FU type, per thread (Count)
system.cpu1.statIssuedInstType_0::SimdSha256Hash2            0      0.00%     68.40% # Number of instructions issued per FU type, per thread (Count)
system.cpu1.statIssuedInstType_0::SimdShaSigma2            0      0.00%     68.40% # Number of instructions issued per FU type, per thread (Count)
system.cpu1.statIssuedInstType_0::SimdShaSigma3            0      0.00%     68.40% # Number of instructions issued per FU type, per thread (Count)
system.cpu1.statIssuedInstType_0::SimdPredAlu            0      0.00%     68.40% # Number of instructions issued per FU type, per thread (Count)
system.cpu1.statIssuedInstType_0::MemRead       935037     11.00%     79.40% # Number of instructions issued per FU type, per thread (Count)
system.cpu1.statIssuedInstType_0::MemWrite       905653     10.65%     90.05% # Number of instructions issued per FU type, per thread (Count)
system.cpu1.statIssuedInstType_0::FloatMemRead       431705      5.08%     95.13% # Number of instructions issued per FU type, per thread (Count)
system.cpu1.statIssuedInstType_0::FloatMemWrite       414010      4.87%    100.00% # Number of instructions issued per FU type, per thread (Count)
system.cpu1.statIssuedInstType_0::IprAccess            0      0.00%    100.00% # Number of instructions issued per FU type, per thread (Count)
system.cpu1.statIssuedInstType_0::InstPrefetch            0      0.00%    100.00% # Number of instructions issued per FU type, per thread (Count)
system.cpu1.statIssuedInstType_0::total       8500990                       # Number of instructions issued per FU type, per thread (Count)
system.cpu1.issueRate                        0.731932                       # Inst issue rate ((Count/Cycle))
system.cpu1.fuBusy                              91267                       # FU busy when requested (Count)
system.cpu1.fuBusyRate                       0.010736                       # FU busy rate (busy events/executed inst) ((Count/Count))
system.cpu1.intInstQueueReads                25814352                       # Number of integer instruction queue reads (Count)
system.cpu1.intInstQueueWrites                8974080                       # Number of integer instruction queue writes (Count)
system.cpu1.intInstQueueWakeupAccesses        7531687                       # Number of integer instruction queue wakeup accesses (Count)
system.cpu1.fpInstQueueReads                  1821864                       # Number of floating instruction queue reads (Count)
system.cpu1.fpInstQueueWrites                  980852                       # Number of floating instruction queue writes (Count)
system.cpu1.fpInstQueueWakeupAccesses          902149                       # Number of floating instruction queue wakeup accesses (Count)
system.cpu1.vecInstQueueReads                       0                       # Number of vector instruction queue reads (Count)
system.cpu1.vecInstQueueWrites                      0                       # Number of vector instruction queue writes (Count)
system.cpu1.vecInstQueueWakeupAccesses              0                       # Number of vector instruction queue wakeup accesses (Count)
system.cpu1.intAluAccesses                    7660894                       # Number of integer alu accesses (Count)
system.cpu1.fpAluAccesses                      913343                       # Number of floating point alu accesses (Count)
system.cpu1.vecAluAccesses                          0                       # Number of vector alu accesses (Count)
system.cpu1.numInsts                          8468216                       # Number of executed instructions (Count)
system.cpu1.numLoadInsts                      1358898                       # Number of load instructions executed (Count)
system.cpu1.numSquashedInsts                    32774                       # Number of squashed instructions skipped in execute (Count)
system.cpu1.numSwp                                  0                       # Number of swp insts executed (Count)
system.cpu1.numNop                                  0                       # Number of nop insts executed (Count)
system.cpu1.numRefs                           2675470                       # Number of memory reference insts executed (Count)
system.cpu1.numBranches                        444002                       # Number of branches executed (Count)
[...]
system.ruby.network.ext_out_link_utilization      4220929                       (Unspecified)
system.ruby.network.flit_network_latency | 80218439500                       |210159095500                       | 19627974000                       (Unspecified)
system.ruby.network.flit_queueing_latency |  2188715000                       |  2255551000                       |   148810500                       (Unspecified)
system.ruby.network.flits_injected       |     1000471     23.70%     23.70% |     2922842     69.25%     92.95% |      297622      7.05%    100.00% (Unspecified)
system.ruby.network.flits_injected::total      4220935                       (Unspecified)
system.ruby.network.flits_received       |     1000471     23.70%     23.70% |     2922837     69.25%     92.95% |      297621      7.05%    100.00% (Unspecified)
system.ruby.network.flits_received::total      4220929                       (Unspecified)
system.ruby.network.int_link_utilization     10463763                       (Unspecified)
system.ruby.network.packet_network_latency | 59721213500                       | 69429406000                       | 19627974000                       (Unspecified)
system.ruby.network.packet_queueing_latency |  1788389000                       |   585627000                       |   148810500                       (Unspecified)
system.ruby.network.packets_injected     |      816183     42.29%     42.29% |      816182     42.29%     84.58% |      297622     15.42%    100.00% (Unspecified)
system.ruby.network.packets_injected::total      1929987                       (Unspecified)
system.ruby.network.packets_received     |      816183     42.29%     42.29% |      816181     42.29%     84.58% |      297621     15.42%    100.00% (Unspecified)
system.ruby.network.packets_received::total      1929985                       (Unspecified)
system.ruby.network.routers00.Var_1                 0                       (Unspecified)
system.ruby.network.routers00.Var_2                 0                       (Unspecified)
system.ruby.network.routers00.Var_3                 0                       (Unspecified)
system.ruby.network.routers00.all_counts            0                       (Unspecified)
system.ruby.network.routers00.buffer_reads       667808                       (Unspecified)
system.ruby.network.routers00.buffer_writes       667808                       (Unspecified)
system.ruby.network.routers00.crossbar_activity       667808                       (Unspecified)
system.ruby.network.routers00.detour_counts            0                       (Unspecified)
system.ruby.network.routers00.regular_var            0                       (Unspecified)
system.ruby.network.routers00.risk_counts            0                       (Unspecified)
system.ruby.network.routers00.sw_input_arbiter_activity       672369                       (Unspecified)
system.ruby.network.routers00.sw_output_arbiter_activity       667808                       (Unspecified)
system.ruby.network.routers01.Var_1                 0                       (Unspecified)
system.ruby.network.routers01.Var_2                 0                       (Unspecified)
system.ruby.network.routers01.Var_3                 0                       (Unspecified)
system.ruby.network.routers01.all_counts            0                       (Unspecified)
system.ruby.network.routers01.buffer_reads       932631                       (Unspecified)
system.ruby.network.routers01.buffer_writes       932631                       (Unspecified)
system.ruby.network.routers01.crossbar_activity       932631                       (Unspecified)
system.ruby.network.routers01.detour_counts            0                       (Unspecified)
system.ruby.network.routers01.regular_var            0                       (Unspecified)
system.ruby.network.routers01.risk_counts            0                       (Unspecified)
system.ruby.network.routers01.sw_input_arbiter_activity       942846                       (Unspecified)
system.ruby.network.routers01.sw_output_arbiter_activity       932631                       (Unspecified)
system.ruby.network.routers02.Var_1                 0                       (Unspecified)
system.ruby.network.routers02.Var_2                 0                       (Unspecified)
system.ruby.network.routers02.Var_3                 0                       (Unspecified)
system.ruby.network.routers02.all_counts            0                       (Unspecified)
system.ruby.network.routers02.buffer_reads       935775                       (Unspecified)
system.ruby.network.routers02.buffer_writes       935775                       (Unspecified)
system.ruby.network.routers02.crossbar_activity       935775                       (Unspecified)
system.ruby.network.routers02.detour_counts            0                       (Unspecified)
system.ruby.network.routers02.regular_var            0                       (Unspecified)
system.ruby.network.routers02.risk_counts            0                       (Unspecified)
system.ruby.network.routers02.sw_input_arbiter_activity       946219                       (Unspecified)
system.ruby.network.routers02.sw_output_arbiter_activity       935775                       (Unspecified)
system.ruby.network.routers03.Var_1                 0                       (Unspecified)
system.ruby.network.routers03.Var_2                 0                       (Unspecified)
system.ruby.network.routers03.Var_3                 0                       (Unspecified)
system.ruby.network.routers03.all_counts            0                       (Unspecified)
system.ruby.network.routers03.buffer_reads       658869                       (Unspecified)
system.ruby.network.routers03.buffer_writes       658869                       (Unspecified)
system.ruby.network.routers03.crossbar_activity       658869                       (Unspecified)
system.ruby.network.routers03.detour_counts            0                       (Unspecified)
system.ruby.network.routers03.regular_var            0                       (Unspecified)
system.ruby.network.routers03.risk_counts            0                       (Unspecified)
system.ruby.network.routers03.sw_input_arbiter_activity       663049                       (Unspecified)
system.ruby.network.routers03.sw_output_arbiter_activity       658869                       (Unspecified)
system.ruby.network.routers04.Var_1                 0                       (Unspecified)
system.ruby.network.routers04.Var_2                 0                       (Unspecified)
system.ruby.network.routers04.Var_3                 0                       (Unspecified)
system.ruby.network.routers04.all_counts            0                       (Unspecified)
system.ruby.network.routers04.buffer_reads       914666                       (Unspecified)
system.ruby.network.routers04.buffer_writes       914666                       (Unspecified)
system.ruby.network.routers04.crossbar_activity       914666                       (Unspecified)
system.ruby.network.routers04.detour_counts            0                       (Unspecified)
system.ruby.network.routers04.regular_var            0                       (Unspecified)
system.ruby.network.routers04.risk_counts            0                       (Unspecified)
system.ruby.network.routers04.sw_input_arbiter_activity       924191                       (Unspecified)
system.ruby.network.routers04.sw_output_arbiter_activity       914666                       (Unspecified)
system.ruby.network.routers05.Var_1                 0                       (Unspecified)
system.ruby.network.routers05.Var_2                 0                       (Unspecified)
system.ruby.network.routers05.Var_3                 0                       (Unspecified)
system.ruby.network.routers05.all_counts            0                       (Unspecified)
system.ruby.network.routers05.buffer_reads      1180495                       (Unspecified)
system.ruby.network.routers05.buffer_writes      1180495                       (Unspecified)
system.ruby.network.routers05.crossbar_activity      1180495                       (Unspecified)
system.ruby.network.routers05.detour_counts            0                       (Unspecified)
system.ruby.network.routers05.regular_var            0                       (Unspecified)
system.ruby.network.routers05.risk_counts            0                       (Unspecified)
system.ruby.network.routers05.sw_input_arbiter_activity      1195801                       (Unspecified)
system.ruby.network.routers05.sw_output_arbiter_activity      1180495                       (Unspecified)
system.ruby.network.routers06.Var_1                 0                       (Unspecified)
system.ruby.network.routers06.Var_2                 0                       (Unspecified)
system.ruby.network.routers06.Var_3                 0                       (Unspecified)
system.ruby.network.routers06.all_counts            0                       (Unspecified)
system.ruby.network.routers06.buffer_reads      1181693                       (Unspecified)
system.ruby.network.routers06.buffer_writes      1181693                       (Unspecified)
system.ruby.network.routers06.crossbar_activity      1181693                       (Unspecified)
system.ruby.network.routers06.detour_counts            0                       (Unspecified)
system.ruby.network.routers06.regular_var            0                       (Unspecified)
system.ruby.network.routers06.risk_counts            0                       (Unspecified)
system.ruby.network.routers06.sw_input_arbiter_activity      1198135                       (Unspecified)
system.ruby.network.routers06.sw_output_arbiter_activity      1181693                       (Unspecified)
system.ruby.network.routers07.Var_1                 0                       (Unspecified)
system.ruby.network.routers07.Var_2                 0                       (Unspecified)
system.ruby.network.routers07.Var_3                 0                       (Unspecified)
system.ruby.network.routers07.all_counts            0                       (Unspecified)
system.ruby.network.routers07.buffer_reads       902189                       (Unspecified)
system.ruby.network.routers07.buffer_writes       902189                       (Unspecified)
system.ruby.network.routers07.crossbar_activity       902189                       (Unspecified)
system.ruby.network.routers07.detour_counts            0                       (Unspecified)
system.ruby.network.routers07.regular_var            0                       (Unspecified)
system.ruby.network.routers07.risk_counts            0                       (Unspecified)
system.ruby.network.routers07.sw_input_arbiter_activity       911920                       (Unspecified)
system.ruby.network.routers07.sw_output_arbiter_activity       902189                       (Unspecified)
system.ruby.network.routers08.Var_1                 0                       (Unspecified)
system.ruby.network.routers08.Var_2                 0                       (Unspecified)
system.ruby.network.routers08.Var_3                 0                       (Unspecified)
system.ruby.network.routers08.all_counts            0                       (Unspecified)
system.ruby.network.routers08.buffer_reads       910946                       (Unspecified)
system.ruby.network.routers08.buffer_writes       910946                       (Unspecified)
system.ruby.network.routers08.crossbar_activity       910946                       (Unspecified)
system.ruby.network.routers08.detour_counts            0                       (Unspecified)
system.ruby.network.routers08.regular_var            0                       (Unspecified)
system.ruby.network.routers08.risk_counts            0                       (Unspecified)
system.ruby.network.routers08.sw_input_arbiter_activity       920368                       (Unspecified)
system.ruby.network.routers08.sw_output_arbiter_activity       910946                       (Unspecified)
system.ruby.network.routers09.Var_1                 0                       (Unspecified)
system.ruby.network.routers09.Var_2                 0                       (Unspecified)
system.ruby.network.routers09.Var_3                 0                       (Unspecified)
system.ruby.network.routers09.all_counts            0                       (Unspecified)
system.ruby.network.routers09.buffer_reads      1180045                       (Unspecified)
system.ruby.network.routers09.buffer_writes      1180045                       (Unspecified)
system.ruby.network.routers09.crossbar_activity      1180045                       (Unspecified)
system.ruby.network.routers09.detour_counts            0                       (Unspecified)
system.ruby.network.routers09.regular_var            0                       (Unspecified)
system.ruby.network.routers09.risk_counts            0                       (Unspecified)
system.ruby.network.routers09.sw_input_arbiter_activity      1195403                       (Unspecified)
system.ruby.network.routers09.sw_output_arbiter_activity      1180045                       (Unspecified)
system.ruby.network.routers10.Var_1                 0                       (Unspecified)
system.ruby.network.routers10.Var_2                 0                       (Unspecified)
system.ruby.network.routers10.Var_3                 0                       (Unspecified)
system.ruby.network.routers10.all_counts            0                       (Unspecified)
system.ruby.network.routers10.buffer_reads      1177203                       (Unspecified)
system.ruby.network.routers10.buffer_writes      1177203                       (Unspecified)
system.ruby.network.routers10.crossbar_activity      1177203                       (Unspecified)
system.ruby.network.routers10.detour_counts            0                       (Unspecified)
system.ruby.network.routers10.regular_var            0                       (Unspecified)
system.ruby.network.routers10.risk_counts            0                       (Unspecified)
system.ruby.network.routers10.sw_input_arbiter_activity      1192381                       (Unspecified)
system.ruby.network.routers10.sw_output_arbiter_activity      1177203                       (Unspecified)
system.ruby.network.routers11.Var_1                 0                       (Unspecified)
system.ruby.network.routers11.Var_2                 0                       (Unspecified)
system.ruby.network.routers11.Var_3                 0                       (Unspecified)
system.ruby.network.routers11.all_counts            0                       (Unspecified)
system.ruby.network.routers11.buffer_reads       897820                       (Unspecified)
system.ruby.network.routers11.buffer_writes       897820                       (Unspecified)
system.ruby.network.routers11.crossbar_activity       897820                       (Unspecified)
system.ruby.network.routers11.detour_counts            0                       (Unspecified)
system.ruby.network.routers11.regular_var            0                       (Unspecified)
system.ruby.network.routers11.risk_counts            0                       (Unspecified)
system.ruby.network.routers11.sw_input_arbiter_activity       906894                       (Unspecified)
system.ruby.network.routers11.sw_output_arbiter_activity       897820                       (Unspecified)
system.ruby.network.routers12.Var_1                 0                       (Unspecified)
system.ruby.network.routers12.Var_2                 0                       (Unspecified)
system.ruby.network.routers12.Var_3                 0                       (Unspecified)
system.ruby.network.routers12.all_counts            0                       (Unspecified)
system.ruby.network.routers12.buffer_reads       655308                       (Unspecified)
system.ruby.network.routers12.buffer_writes       655308                       (Unspecified)
system.ruby.network.routers12.crossbar_activity       655308                       (Unspecified)
system.ruby.network.routers12.detour_counts            0                       (Unspecified)
system.ruby.network.routers12.regular_var            0                       (Unspecified)
system.ruby.network.routers12.risk_counts            0                       (Unspecified)
system.ruby.network.routers12.sw_input_arbiter_activity       659537                       (Unspecified)
system.ruby.network.routers12.sw_output_arbiter_activity       655308                       (Unspecified)
system.ruby.network.routers13.Var_1                 0                       (Unspecified)
system.ruby.network.routers13.Var_2                 0                       (Unspecified)
system.ruby.network.routers13.Var_3                 0                       (Unspecified)
system.ruby.network.routers13.all_counts            0                       (Unspecified)
system.ruby.network.routers13.buffer_reads       922550                       (Unspecified)
system.ruby.network.routers13.buffer_writes       922550                       (Unspecified)
system.ruby.network.routers13.crossbar_activity       922550                       (Unspecified)
system.ruby.network.routers13.detour_counts            0                       (Unspecified)
system.ruby.network.routers13.regular_var            0                       (Unspecified)
system.ruby.network.routers13.risk_counts            0                       (Unspecified)
system.ruby.network.routers13.sw_input_arbiter_activity       932523                       (Unspecified)
system.ruby.network.routers13.sw_output_arbiter_activity       922550                       (Unspecified)
system.ruby.network.routers14.Var_1                 0                       (Unspecified)
system.ruby.network.routers14.Var_2                 0                       (Unspecified)
system.ruby.network.routers14.Var_3                 0                       (Unspecified)
system.ruby.network.routers14.all_counts            0                       (Unspecified)
system.ruby.network.routers14.buffer_reads       916722                       (Unspecified)
system.ruby.network.routers14.buffer_writes       916722                       (Unspecified)
system.ruby.network.routers14.crossbar_activity       916722                       (Unspecified)
system.ruby.network.routers14.detour_counts            0                       (Unspecified)
system.ruby.network.routers14.regular_var            0                       (Unspecified)
system.ruby.network.routers14.risk_counts            0                       (Unspecified)
system.ruby.network.routers14.sw_input_arbiter_activity       926512                       (Unspecified)
system.ruby.network.routers14.sw_output_arbiter_activity       916722                       (Unspecified)
system.ruby.network.routers15.Var_1                 0                       (Unspecified)
system.ruby.network.routers15.Var_2                 0                       (Unspecified)
system.ruby.network.routers15.Var_3                 0                       (Unspecified)
system.ruby.network.routers15.all_counts            0                       (Unspecified)
system.ruby.network.routers15.buffer_reads       649972                       (Unspecified)
system.ruby.network.routers15.buffer_writes       649972                       (Unspecified)
system.ruby.network.routers15.crossbar_activity       649972                       (Unspecified)
system.ruby.network.routers15.detour_counts            0                       (Unspecified)
system.ruby.network.routers15.regular_var            0                       (Unspecified)
system.ruby.network.routers15.risk_counts            0                       (Unspecified)
system.ruby.network.routers15.sw_input_arbiter_activity       654170                       (Unspecified)
system.ruby.network.routers15.sw_output_arbiter_activity       649972                       (Unspecified)

---------- End Simulation Statistics   ----------
